
                                  MODFLOW-NWT-SWR1 
    U.S. GEOLOGICAL SURVEY MODULAR FINITE-DIFFERENCE GROUNDWATER-FLOW MODEL
                             WITH NEWTON FORMULATION
                             Version 1.1.4 4/01/2018                         
                    BASED ON MODFLOW-2005 Version 1.12.0 02/03/2017                       

                    SWR1 Version 1.04.0 09/15/2016                       

 Using NAME file: freyberg.nam 
 Run start date and time (yyyy/mm/dd hh:mm:ss): 2018/07/20 14:15:26

 Solving:  Stress period:     1    Time step:     1    Groundwater-Flow Eqn.
 Solving:  Stress period:     2    Time step:     1    Groundwater-Flow Eqn.
 Solving:  Stress period:     3    Time step:     1    Groundwater-Flow Eqn.
 Run end date and time (yyyy/mm/dd hh:mm:ss): 2018/07/20 14:15:26
 Elapsed run time:  0.033 Seconds

  Normal termination of simulation
