Processing basic data ...
Checking head file ...
Checking budget file and building index ...
 
Run particle tracking simulation ...
Processing Time Step     1 Period     1.  Time =  1.00000E+00                                                                       
Processing Time Step     1 Period     2.  Time =  1.82600E+03                                                                       
Processing Time Step     1 Period     3.  Time =  1.82700E+03                                                                       
Particle tracking complete. Writing endpoint file ...                                                                               
End of MODPATH simulation. Normal termination.
