                                  MODFLOW-NWT-SWR1 
      U.S. GEOLOGICAL SURVEY MODULAR FINITE-DIFFERENCE GROUNDWATER-FLOW MODEL
                             VERSION 1.1.4 4/01/2018
                    BASED ON MODFLOW-2005 VERSION 1.12.00 02/03/2017

 LIST FILE: dewater_pest.list
                         UNIT    2

 OPENING dewater_pest.dis
 FILE TYPE:DIS   UNIT   11   STATUS:OLD    
 FORMAT:FORMATTED              ACCESS:SEQUENTIAL          

 OPENING dewater_pest.bas
 FILE TYPE:BAS6   UNIT   13   STATUS:OLD    
 FORMAT:FORMATTED              ACCESS:SEQUENTIAL          

 OPENING dewater_pest.bcf
 FILE TYPE:BCF6   UNIT   15   STATUS:OLD    
 FORMAT:FORMATTED              ACCESS:SEQUENTIAL          

 OPENING dewater_pest.pcg
 FILE TYPE:PCG   UNIT   27   STATUS:OLD    
 FORMAT:FORMATTED              ACCESS:SEQUENTIAL          

 OPENING dewater_pest.wel
 FILE TYPE:WEL   UNIT   20   STATUS:OLD    
 FORMAT:FORMATTED              ACCESS:SEQUENTIAL          

 OPENING dewater_pest.oc
 FILE TYPE:OC   UNIT   14   STATUS:OLD    
 FORMAT:FORMATTED              ACCESS:SEQUENTIAL          

 OPENING dewater_pest.hds
 FILE TYPE:DATA   UNIT   51   STATUS:REPLACE
 FORMAT:FORMATTED              ACCESS:SEQUENTIAL          

 OPENING dewater_pest.ddn
 FILE TYPE:DATA(BINARY)   UNIT   52   STATUS:REPLACE
 FORMAT:UNFORMATTED            ACCESS:STREAM              

 OPENING dewater_pest.cbc
 FILE TYPE:DATA(BINARY)   UNIT   53   STATUS:REPLACE
 FORMAT:UNFORMATTED            ACCESS:STREAM              

 BAS -- BASIC PACKAGE, VERSION 1.1.4, 4/01/2018 INPUT READ FROM UNIT   13
 
 MODFLOW was compiled using mixed precision
 Precision of REAL variables:           6
 Precision of DOUBLE PRECISION variables:          15

 DISCRETIZATION INPUT DATA READ FROM UNIT   11
 # Discretization file for MODFLOW, generated by Flopy.
    1 LAYERS        20 ROWS        30 COLUMNS
    1 STRESS PERIOD(S) IN SIMULATION
 MODEL TIME UNIT IS DAYS
 MODEL LENGTH UNIT IS UNDEFINED
  Confining bed flag for each layer:
   0

 OPENING FILE ON UNIT   99:
 delr.ref                                                                                                                                                                                                



                               DELR
 READING ON UNIT   99 WITH FORMAT: (30E15.6)           

 OPENING FILE ON UNIT   99:
 delc.ref                                                                                                                                                                                                



                               DELC
 READING ON UNIT   99 WITH FORMAT: (20E15.6)           

 OPENING FILE ON UNIT   99:
 model_top.ref                                                                                                                                                                                           



           TOP ELEVATION OF LAYER 1
 READING ON UNIT   99 WITH FORMAT: (FREE)              

 OPENING FILE ON UNIT   99:
 botm_layer_1.ref                                                                                                                                                                                        



             MODEL LAYER BOTTOM EL. FOR LAYER   1
 READING ON UNIT   99 WITH FORMAT: (FREE)              


 STRESS PERIOD     LENGTH       TIME STEPS     MULTIPLIER FOR DELT    SS FLAG
 ----------------------------------------------------------------------------
        1         1000.000          1                    1.000         SS

 STEADY-STATE SIMULATION



 
 # Basic package file for MODFLOW, generated by Flopy.                           
 THE FREE FORMAT OPTION HAS BEEN SELECTED

 OPENING FILE ON UNIT   99:
 ibound_layer_1.ref                                                                                                                                                                                      



                     BOUNDARY ARRAY FOR LAYER   1
 READING ON UNIT   99 WITH FORMAT: (FREE)              

 AQUIFER HEAD WILL BE SET TO   0.0000     AT ALL NO-FLOW NODES (IBOUND=0).

 OPENING FILE ON UNIT   99:
 strt_layer_1.ref                                                                                                                                                                                        



                       INITIAL HEAD FOR LAYER   1
 READING ON UNIT   99 WITH FORMAT: (FREE)              
 # Output control package file for MODFLOW, generated by Flopy.

 OUTPUT CONTROL IS SPECIFIED ONLY AT TIME STEPS FOR WHICH OUTPUT IS DESIRED
 HEADS WILL BE SAVED WITH FORMAT: (30E15.6)           
 SAVED HEADS WILL BE LABELED
 COMPACT CELL-BY-CELL BUDGET FILES WILL BE WRITTEN
 AUXILIARY DATA WILL BE SAVED IN CELL-BY-CELL BUDGET FILES
 HEAD PRINT FORMAT CODE IS   0    DRAWDOWN PRINT FORMAT CODE IS   0
 HEADS WILL BE SAVED ON UNIT   51    DRAWDOWNS WILL BE SAVED ON UNIT   52

 BCF -- BLOCK-CENTERED FLOW PACKAGE, VERSION 7, 5/2/2005
         INPUT READ FROM UNIT 15
 STEADY-STATE SIMULATION
 HEAD AT CELLS THAT CONVERT TO DRY=   0.0000    
 WETTING CAPABILITY IS ACTIVE
 WETTING FACTOR=   1.00000     WETTING ITERATION INTERVAL=   1
 FLAG THAT SPECIFIES THE EQUATION TO USE FOR HEAD AT WETTED CELLS=   0
      LAYER  LAYER-TYPE CODE     INTERBLOCK T
      --------------------------------------------
         1            0          0 -- HARMONIC    

 OPENING FILE ON UNIT   99:
 anisotropy_factor.ref                                                                                                                                                                                   



           COLUMN TO ROW ANISOTROPY
 READING ON UNIT   99 WITH FORMAT: (1E15.6)            

 OPENING FILE ON UNIT   99:
 transmissivity_layer_1.ref                                                                                                                                                                              



               TRANSMIS. ALONG ROWS FOR LAYER   1
 READING ON UNIT   99 WITH FORMAT: (FREE)              

 WEL -- WELL PACKAGE FOR NWT VERSION 1.1.4,  4/01/2018 INPUT READ FROM UNIT   20
 # Well file for MODFLOW, generated by Flopy.
 No named parameters
 MAXIMUM OF      7 ACTIVE WELLS AT ONE TIME
 No named parameters


     0 Well parameters

 PCG -- CONJUGATE-GRADIENT SOLUTION PACKAGE, VERSION 7, 5/2/2005
 # PCG for MODFLOW, generated by Flopy.
 MAXIMUM OF     50 CALLS OF SOLUTION ROUTINE
 MAXIMUM OF      5 INTERNAL ITERATIONS PER CALL TO SOLUTION ROUTINE
 MATRIX PRECONDITIONING TYPE :    1



                                    SOLUTION BY THE CONJUGATE-GRADIENT METHOD
                                   -------------------------------------------
                    MAXIMUM NUMBER OF CALLS TO PCG ROUTINE =       50
                        MAXIMUM ITERATIONS PER CALL TO PCG =        5
                               MATRIX PRECONDITIONING TYPE =        1
        RELAXATION FACTOR (ONLY USED WITH PRECOND. TYPE 1) =    0.10000E+01
 PARAMETER OF POLYNOMIAL PRECOND. = 2 (2) OR IS CALCULATED :        0
                         HEAD CHANGE CRITERION FOR CLOSURE =    0.10000E-07
                     RESIDUAL CHANGE CRITERION FOR CLOSURE =    0.10000E+01
            PCG HEAD AND RESIDUAL CHANGE PRINTOUT INTERVAL =        1
     PRINTING FROM SOLVER IS LIMITED(1) OR SUPPRESSED (>1) =        0
                            STEADY-STATE DAMPING PARAMETER =    0.10000E+01
                               TRANSIENT DAMPING PARAMETER =    0.10000E+01
1
                            STRESS PERIOD NO.    1, LENGTH =   1000.000    
                            -----------------------------------------------

                              NUMBER OF TIME STEPS =     1

                               MULTIPLIER FOR DELT =     1.000

                            INITIAL TIME STEP SIZE =   1000.000    

 OPENING FILE ON UNIT   99:
 WEL_0000.dat                                                                                                                                                                                            

 WELL NO.  LAYER   ROW   COL   STRESS RATE         
 --------------------------------------------------
      1      1      7     14      -1285.    
      2      1      7     16      -253.8    
      3      1      8     15       0.000    
      4      1      9     14      -887.3    
      5      1      9     16       0.000    
      6      1     11     17       0.000    
      7      1     13     16      -1286.    

      7 WELLS
 
 SOLVING FOR HEAD 


    10 CALLS TO PCG ROUTINE FOR TIME STEP     1 IN STRESS PERIOD    1
    45 TOTAL ITERATIONS

 MAXIMUM HEAD CHANGE FOR EACH ITERATION (1 INDICATES THE FIRST INNER ITERATION):

    HEAD CHANGE    HEAD CHANGE    HEAD CHANGE    HEAD CHANGE    HEAD CHANGE 
   LAYER,ROW,COL  LAYER,ROW,COL  LAYER,ROW,COL  LAYER,ROW,COL  LAYER,ROW,COL
 ---------------------------------------------------------------------------
  1  -28.31      0  -16.43      0  -5.121      0  -3.408      0   1.903    
   (  1,  7, 14)  (  1,  2, 17)  (  1,  1, 23)  (  1, 20,  9)  (  1,  1, 13)
  1 -0.8997      0 -0.4487      0  0.2683      0  0.3533      0  0.1271    
   (  1,  4, 16)  (  1,  3, 24)  (  1,  4,  4)  (  1,  1, 11)  (  1,  5, 11)
  1 -0.9302E-01  0 -0.6872E-01  0  0.3940E-01  0  0.1055E-01  0  0.9537E-02
   (  1,  7, 14)  (  1,  6, 22)  (  1,  1, 10)  (  1,  3, 24)  (  1,  1, 13)
  1 -0.4638E-02  0  0.3189E-02  0  0.1812E-02  0  0.1990E-02  0  0.6122E-03
   (  1,  5, 17)  (  1,  5, 14)  (  1,  6,  8)  (  1,  2, 12)  (  1,  5, 12)
  1 -0.5915E-03  0 -0.4563E-03  0  0.2426E-03  0  0.8701E-04  0  0.6341E-04
   (  1,  9, 16)  (  1,  7, 22)  (  1,  2, 11)  (  1,  6,  8)  (  1,  1, 13)
  1 -0.3156E-04  0  0.2187E-04  0  0.1361E-04  0  0.1217E-04  0  0.4474E-05
   (  1,  5, 17)  (  1,  5, 14)  (  1,  7, 10)  (  1,  2, 12)  (  1,  4, 11)
  1 -0.4024E-05  0 -0.3110E-05  0  0.1698E-05  0  0.5667E-06  0  0.4416E-06
   (  1,  9, 16)  (  1,  7, 22)  (  1,  2, 11)  (  1,  6,  8)  (  1,  1, 13)
  1 -0.2130E-06  0  0.1537E-06  0  0.9694E-07  0  0.8231E-07  0  0.3067E-07
   (  1,  6, 18)  (  1,  5, 14)  (  1,  7, 10)  (  1,  2, 12)  (  1,  4, 11)
  1 -0.2784E-07  0 -0.2163E-07  0  0.1183E-07  0  0.3912E-08  1  0.2535E-08
   (  1,  9, 16)  (  1,  7, 22)  (  1,  2, 11)  (  1,  6,  9)  (  1,  7, 18)

 MAXIMUM RESIDUAL FOR EACH ITERATION (1 INDICATES THE FIRST INNER ITERATION):

    RESIDUAL       RESIDUAL       RESIDUAL       RESIDUAL       RESIDUAL    
   LAYER,ROW,COL  LAYER,ROW,COL  LAYER,ROW,COL  LAYER,ROW,COL  LAYER,ROW,COL
 ---------------------------------------------------------------------------
  1   793.7      0   293.0      0   216.5      0   112.8      0  -76.31    
   (  1, 13, 16)  (  1,  1, 29)  (  1,  1, 29)  (  1,  1, 29)  (  1,  2, 29)
  1  -55.47      0  -23.91      0   12.29      0  -5.245      0   4.325    
   (  1,  2, 29)  (  1,  2, 29)  (  1,  2, 28)  (  1,  3,  2)  (  1,  7, 14)
  1   2.825      0  -1.526      0 -0.7677      0 -0.5331      0 -0.3491    
   (  1, 13, 16)  (  1,  4,  2)  (  1,  1,  2)  (  1,  2, 29)  (  1,  2, 29)
  1 -0.2738      0 -0.1353      0 -0.6662E-01  0 -0.3372E-01  0  0.2470E-01
   (  1,  2, 29)  (  1,  1,  2)  (  1,  1,  2)  (  1,  3,  2)  (  1,  7, 14)
  1 -0.1863E-01  0 -0.1027E-01  0 -0.5152E-02  0 -0.3307E-02  0 -0.2191E-02
   (  1,  3,  2)  (  1,  3,  2)  (  1,  1,  2)  (  1,  2, 29)  (  1,  2, 29)
  1 -0.1730E-02  0 -0.9387E-03  0 -0.4512E-03  0 -0.2296E-03  0 -0.1680E-03
   (  1,  2, 29)  (  1,  1,  2)  (  1,  1,  2)  (  1,  3,  2)  (  1,  3, 28)
  1 -0.1275E-03  0 -0.7144E-04  0 -0.3582E-04  0 -0.2243E-04  0 -0.1446E-04
   (  1,  3,  2)  (  1,  3,  2)  (  1,  1,  2)  (  1,  2, 29)  (  1,  2, 29)
  1 -0.1145E-04  0 -0.6580E-05  0 -0.3144E-05  0 -0.1605E-05  0 -0.1168E-05
   (  1,  2, 29)  (  1,  1,  2)  (  1,  3,  2)  (  1,  3,  2)  (  1,  3, 28)
  1 -0.8866E-06  0 -0.5008E-06  0 -0.2517E-06  0 -0.1542E-06  1 -0.1195E-06
   (  1,  3,  2)  (  1,  3,  2)  (  1,  1,  2)  (  1,  2, 29)  (  1,  1,  2)



 OUTPUT CONTROL FOR STRESS PERIOD    1   TIME STEP    1
    SAVE HEAD FOR ALL LAYERS

 HEAD WILL BE SAVED ON UNIT   51 AT END OF TIME STEP    1, STRESS PERIOD    1
1
  VOLUMETRIC BUDGET FOR ENTIRE MODEL AT END OF TIME STEP    1, STRESS PERIOD   1
  ------------------------------------------------------------------------------

     CUMULATIVE VOLUMES      L**3       RATES FOR THIS TIME STEP      L**3/T
     ------------------                 ------------------------

           IN:                                      IN:
           ---                                      ---
             STORAGE =           0.0000               STORAGE =           0.0000
       CONSTANT HEAD =     3712335.7500         CONSTANT HEAD =        3712.3357
               WELLS =           0.0000                 WELLS =           0.0000

            TOTAL IN =     3712335.7500              TOTAL IN =        3712.3357

          OUT:                                     OUT:
          ----                                     ----
             STORAGE =           0.0000               STORAGE =           0.0000
       CONSTANT HEAD =           0.0000         CONSTANT HEAD =           0.0000
               WELLS =     3712335.7500                 WELLS =        3712.3357

           TOTAL OUT =     3712335.7500             TOTAL OUT =        3712.3357

            IN - OUT =           0.0000              IN - OUT =           0.0000

 PERCENT DISCREPANCY =           0.00     PERCENT DISCREPANCY =           0.00






         TIME SUMMARY AT END OF TIME STEP    1 IN STRESS PERIOD    1
                    SECONDS     MINUTES      HOURS       DAYS        YEARS
                    -----------------------------------------------------------
   TIME STEP LENGTH 8.64000E+07 1.44000E+06  24000.      1000.0      2.7379    
 STRESS PERIOD TIME 8.64000E+07 1.44000E+06  24000.      1000.0      2.7379    
         TOTAL TIME 8.64000E+07 1.44000E+06  24000.      1000.0      2.7379    
1

 Run end date and time (yyyy/mm/dd hh:mm:ss): 2018/07/20 15:05:43
 Elapsed run time:  0.011 Seconds

