                                  SEAWAT Version 4
      U.S. GEOLOGICAL SURVEY MODULAR FINITE-DIFFERENCE GROUND-WATER FLOW MODEL
                           VERSION 4.00.04 02/07/2011


 This model run combines GLOBAL and LIST output into this single file.

 GLOBAL LISTING FILE: henry_coarse.list
                         UNIT    7
# Flow                                                                                                                                                                                                  

 OPENING henry_coarse.dis
 FILE TYPE:DIS   UNIT   11   STATUS:OLD    
 FORMAT:FORMATTED              ACCESS:SEQUENTIAL          

 OPENING henry_coarse.bas
 FILE TYPE:BAS6   UNIT   13   STATUS:OLD    
 FORMAT:FORMATTED              ACCESS:SEQUENTIAL          

 OPENING henry_coarse.lpf
 FILE TYPE:LPF   UNIT   15   STATUS:OLD    
 FORMAT:FORMATTED              ACCESS:SEQUENTIAL          

 OPENING henry_coarse.gmg
 FILE TYPE:GMG   UNIT   27   STATUS:OLD    
 FORMAT:FORMATTED              ACCESS:SEQUENTIAL          

 OPENING henry_coarse.oc
 FILE TYPE:OC   UNIT   14   STATUS:OLD    
 FORMAT:FORMATTED              ACCESS:SEQUENTIAL          

 OPENING henry_coarse.hds
 FILE TYPE:DATA(BINARY)   UNIT   51   STATUS:REPLACE
 FORMAT:BINARY                 ACCESS:SEQUENTIAL          

 OPENING henry_coarse.ddn
 FILE TYPE:DATA(BINARY)   UNIT   52   STATUS:REPLACE
 FORMAT:BINARY                 ACCESS:SEQUENTIAL          

 OPENING henry_coarse.cbc
 FILE TYPE:DATA(BINARY)   UNIT   53   STATUS:REPLACE
 FORMAT:BINARY                 ACCESS:SEQUENTIAL          

 OPENING henry_coarse.ghb
 FILE TYPE:GHB   UNIT   23   STATUS:OLD    
 FORMAT:FORMATTED              ACCESS:SEQUENTIAL          

 OPENING henry_coarse.wel
 FILE TYPE:WEL   UNIT   20   STATUS:OLD    
 FORMAT:FORMATTED              ACCESS:SEQUENTIAL          

 OPENING ref_coarse\hk.ref
 FILE TYPE:DATA   UNIT  150   STATUS:UNKNOWN
 FORMAT:FORMATTED              ACCESS:SEQUENTIAL          

 OPENING ref_coarse\vk.ref
 FILE TYPE:DATA   UNIT  151   STATUS:UNKNOWN
 FORMAT:FORMATTED              ACCESS:SEQUENTIAL          
# Transport                                                                                                                                                                                             

 OPENING henry_coarse.adv
 FILE TYPE:ADV   UNIT   32   STATUS:OLD    
 FORMAT:FORMATTED              ACCESS:SEQUENTIAL          

 OPENING henry_coarse.btn
 FILE TYPE:BTN   UNIT   31   STATUS:OLD    
 FORMAT:FORMATTED              ACCESS:SEQUENTIAL          

 OPENING henry_coarse.dsp
 FILE TYPE:DSP   UNIT   33   STATUS:OLD    
 FORMAT:FORMATTED              ACCESS:SEQUENTIAL          

 OPENING henry_coarse.gcg
 FILE TYPE:GCG   UNIT   35   STATUS:OLD    
 FORMAT:FORMATTED              ACCESS:SEQUENTIAL          

 OPENING henry_coarse.ssm
 FILE TYPE:SSM   UNIT   34   STATUS:OLD    
 FORMAT:FORMATTED              ACCESS:SEQUENTIAL          

 OPENING ref_coarse\btn_top_1.ref
 FILE TYPE:DATA   UNIT  501   STATUS:UNKNOWN
 FORMAT:FORMATTED              ACCESS:SEQUENTIAL          

 OPENING ref_coarse\thk_1.ref
 FILE TYPE:DATA   UNIT  502   STATUS:UNKNOWN
 FORMAT:FORMATTED              ACCESS:SEQUENTIAL          

 OPENING ref_coarse\thk_2.ref
 FILE TYPE:DATA   UNIT  503   STATUS:UNKNOWN
 FORMAT:FORMATTED              ACCESS:SEQUENTIAL          

 OPENING ref_coarse\thk_3.ref
 FILE TYPE:DATA   UNIT  504   STATUS:UNKNOWN
 FORMAT:FORMATTED              ACCESS:SEQUENTIAL          

 OPENING ref_coarse\thk_4.ref
 FILE TYPE:DATA   UNIT  505   STATUS:UNKNOWN
 FORMAT:FORMATTED              ACCESS:SEQUENTIAL          

 OPENING ref_coarse\thk_5.ref
 FILE TYPE:DATA   UNIT  506   STATUS:UNKNOWN
 FORMAT:FORMATTED              ACCESS:SEQUENTIAL          

 OPENING ref_coarse\thk_6.ref
 FILE TYPE:DATA   UNIT  507   STATUS:UNKNOWN
 FORMAT:FORMATTED              ACCESS:SEQUENTIAL          

 OPENING ref_coarse\thk_7.ref
 FILE TYPE:DATA   UNIT  508   STATUS:UNKNOWN
 FORMAT:FORMATTED              ACCESS:SEQUENTIAL          

 OPENING ref_coarse\thk_8.ref
 FILE TYPE:DATA   UNIT  509   STATUS:UNKNOWN
 FORMAT:FORMATTED              ACCESS:SEQUENTIAL          

 OPENING ref_coarse\thk_9.ref
 FILE TYPE:DATA   UNIT  510   STATUS:UNKNOWN
 FORMAT:FORMATTED              ACCESS:SEQUENTIAL          

 OPENING ref_coarse\thk_10.ref
 FILE TYPE:DATA   UNIT  511   STATUS:UNKNOWN
 FORMAT:FORMATTED              ACCESS:SEQUENTIAL          

 OPENING ref_coarse\thk_11.ref
 FILE TYPE:DATA   UNIT  512   STATUS:UNKNOWN
 FORMAT:FORMATTED              ACCESS:SEQUENTIAL          

 OPENING ref_coarse\thk_12.ref
 FILE TYPE:DATA   UNIT  513   STATUS:UNKNOWN
 FORMAT:FORMATTED              ACCESS:SEQUENTIAL          

 OPENING ref_coarse\thk_13.ref
 FILE TYPE:DATA   UNIT  514   STATUS:UNKNOWN
 FORMAT:FORMATTED              ACCESS:SEQUENTIAL          

 OPENING ref_coarse\thk_14.ref
 FILE TYPE:DATA   UNIT  515   STATUS:UNKNOWN
 FORMAT:FORMATTED              ACCESS:SEQUENTIAL          

 OPENING ref_coarse\thk_15.ref
 FILE TYPE:DATA   UNIT  516   STATUS:UNKNOWN
 FORMAT:FORMATTED              ACCESS:SEQUENTIAL          

 OPENING ref_coarse\thk_16.ref
 FILE TYPE:DATA   UNIT  517   STATUS:UNKNOWN
 FORMAT:FORMATTED              ACCESS:SEQUENTIAL          

 OPENING ref_coarse\thk_17.ref
 FILE TYPE:DATA   UNIT  518   STATUS:UNKNOWN
 FORMAT:FORMATTED              ACCESS:SEQUENTIAL          

 OPENING ref_coarse\thk_18.ref
 FILE TYPE:DATA   UNIT  519   STATUS:UNKNOWN
 FORMAT:FORMATTED              ACCESS:SEQUENTIAL          

 OPENING ref_coarse\thk_19.ref
 FILE TYPE:DATA   UNIT  520   STATUS:UNKNOWN
 FORMAT:FORMATTED              ACCESS:SEQUENTIAL          

 OPENING ref_coarse\thk_20.ref
 FILE TYPE:DATA   UNIT  521   STATUS:UNKNOWN
 FORMAT:FORMATTED              ACCESS:SEQUENTIAL          

 OPENING ref_coarse\prsity_1.ref
 FILE TYPE:DATA   UNIT  522   STATUS:UNKNOWN
 FORMAT:FORMATTED              ACCESS:SEQUENTIAL          

 OPENING ref_coarse\prsity_2.ref
 FILE TYPE:DATA   UNIT  523   STATUS:UNKNOWN
 FORMAT:FORMATTED              ACCESS:SEQUENTIAL          

 OPENING ref_coarse\prsity_3.ref
 FILE TYPE:DATA   UNIT  524   STATUS:UNKNOWN
 FORMAT:FORMATTED              ACCESS:SEQUENTIAL          

 OPENING ref_coarse\prsity_4.ref
 FILE TYPE:DATA   UNIT  525   STATUS:UNKNOWN
 FORMAT:FORMATTED              ACCESS:SEQUENTIAL          

 OPENING ref_coarse\prsity_5.ref
 FILE TYPE:DATA   UNIT  526   STATUS:UNKNOWN
 FORMAT:FORMATTED              ACCESS:SEQUENTIAL          

 OPENING ref_coarse\prsity_6.ref
 FILE TYPE:DATA   UNIT  527   STATUS:UNKNOWN
 FORMAT:FORMATTED              ACCESS:SEQUENTIAL          

 OPENING ref_coarse\prsity_7.ref
 FILE TYPE:DATA   UNIT  528   STATUS:UNKNOWN
 FORMAT:FORMATTED              ACCESS:SEQUENTIAL          

 OPENING ref_coarse\prsity_8.ref
 FILE TYPE:DATA   UNIT  529   STATUS:UNKNOWN
 FORMAT:FORMATTED              ACCESS:SEQUENTIAL          

 OPENING ref_coarse\prsity_9.ref
 FILE TYPE:DATA   UNIT  530   STATUS:UNKNOWN
 FORMAT:FORMATTED              ACCESS:SEQUENTIAL          

 OPENING ref_coarse\prsity_10.ref
 FILE TYPE:DATA   UNIT  531   STATUS:UNKNOWN
 FORMAT:FORMATTED              ACCESS:SEQUENTIAL          

 OPENING ref_coarse\prsity_11.ref
 FILE TYPE:DATA   UNIT  532   STATUS:UNKNOWN
 FORMAT:FORMATTED              ACCESS:SEQUENTIAL          

 OPENING ref_coarse\prsity_12.ref
 FILE TYPE:DATA   UNIT  533   STATUS:UNKNOWN
 FORMAT:FORMATTED              ACCESS:SEQUENTIAL          

 OPENING ref_coarse\prsity_13.ref
 FILE TYPE:DATA   UNIT  534   STATUS:UNKNOWN
 FORMAT:FORMATTED              ACCESS:SEQUENTIAL          

 OPENING ref_coarse\prsity_14.ref
 FILE TYPE:DATA   UNIT  535   STATUS:UNKNOWN
 FORMAT:FORMATTED              ACCESS:SEQUENTIAL          

 OPENING ref_coarse\prsity_15.ref
 FILE TYPE:DATA   UNIT  536   STATUS:UNKNOWN
 FORMAT:FORMATTED              ACCESS:SEQUENTIAL          

 OPENING ref_coarse\prsity_16.ref
 FILE TYPE:DATA   UNIT  537   STATUS:UNKNOWN
 FORMAT:FORMATTED              ACCESS:SEQUENTIAL          

 OPENING ref_coarse\prsity_17.ref
 FILE TYPE:DATA   UNIT  538   STATUS:UNKNOWN
 FORMAT:FORMATTED              ACCESS:SEQUENTIAL          

 OPENING ref_coarse\prsity_18.ref
 FILE TYPE:DATA   UNIT  539   STATUS:UNKNOWN
 FORMAT:FORMATTED              ACCESS:SEQUENTIAL          

 OPENING ref_coarse\prsity_19.ref
 FILE TYPE:DATA   UNIT  540   STATUS:UNKNOWN
 FORMAT:FORMATTED              ACCESS:SEQUENTIAL          

 OPENING ref_coarse\prsity_20.ref
 FILE TYPE:DATA   UNIT  541   STATUS:UNKNOWN
 FORMAT:FORMATTED              ACCESS:SEQUENTIAL          

 OPENING ref_coarse\icbund_1.ref
 FILE TYPE:DATA   UNIT  542   STATUS:UNKNOWN
 FORMAT:FORMATTED              ACCESS:SEQUENTIAL          

 OPENING ref_coarse\icbund_2.ref
 FILE TYPE:DATA   UNIT  543   STATUS:UNKNOWN
 FORMAT:FORMATTED              ACCESS:SEQUENTIAL          

 OPENING ref_coarse\icbund_3.ref
 FILE TYPE:DATA   UNIT  544   STATUS:UNKNOWN
 FORMAT:FORMATTED              ACCESS:SEQUENTIAL          

 OPENING ref_coarse\icbund_4.ref
 FILE TYPE:DATA   UNIT  545   STATUS:UNKNOWN
 FORMAT:FORMATTED              ACCESS:SEQUENTIAL          

 OPENING ref_coarse\icbund_5.ref
 FILE TYPE:DATA   UNIT  546   STATUS:UNKNOWN
 FORMAT:FORMATTED              ACCESS:SEQUENTIAL          

 OPENING ref_coarse\icbund_6.ref
 FILE TYPE:DATA   UNIT  547   STATUS:UNKNOWN
 FORMAT:FORMATTED              ACCESS:SEQUENTIAL          

 OPENING ref_coarse\icbund_7.ref
 FILE TYPE:DATA   UNIT  548   STATUS:UNKNOWN
 FORMAT:FORMATTED              ACCESS:SEQUENTIAL          

 OPENING ref_coarse\icbund_8.ref
 FILE TYPE:DATA   UNIT  549   STATUS:UNKNOWN
 FORMAT:FORMATTED              ACCESS:SEQUENTIAL          

 OPENING ref_coarse\icbund_9.ref
 FILE TYPE:DATA   UNIT  550   STATUS:UNKNOWN
 FORMAT:FORMATTED              ACCESS:SEQUENTIAL          

 OPENING ref_coarse\icbund_10.ref
 FILE TYPE:DATA   UNIT  551   STATUS:UNKNOWN
 FORMAT:FORMATTED              ACCESS:SEQUENTIAL          

 OPENING ref_coarse\icbund_11.ref
 FILE TYPE:DATA   UNIT  552   STATUS:UNKNOWN
 FORMAT:FORMATTED              ACCESS:SEQUENTIAL          

 OPENING ref_coarse\icbund_12.ref
 FILE TYPE:DATA   UNIT  553   STATUS:UNKNOWN
 FORMAT:FORMATTED              ACCESS:SEQUENTIAL          

 OPENING ref_coarse\icbund_13.ref
 FILE TYPE:DATA   UNIT  554   STATUS:UNKNOWN
 FORMAT:FORMATTED              ACCESS:SEQUENTIAL          

 OPENING ref_coarse\icbund_14.ref
 FILE TYPE:DATA   UNIT  555   STATUS:UNKNOWN
 FORMAT:FORMATTED              ACCESS:SEQUENTIAL          

 OPENING ref_coarse\icbund_15.ref
 FILE TYPE:DATA   UNIT  556   STATUS:UNKNOWN
 FORMAT:FORMATTED              ACCESS:SEQUENTIAL          

 OPENING ref_coarse\icbund_16.ref
 FILE TYPE:DATA   UNIT  557   STATUS:UNKNOWN
 FORMAT:FORMATTED              ACCESS:SEQUENTIAL          

 OPENING ref_coarse\icbund_17.ref
 FILE TYPE:DATA   UNIT  558   STATUS:UNKNOWN
 FORMAT:FORMATTED              ACCESS:SEQUENTIAL          

 OPENING ref_coarse\icbund_18.ref
 FILE TYPE:DATA   UNIT  559   STATUS:UNKNOWN
 FORMAT:FORMATTED              ACCESS:SEQUENTIAL          

 OPENING ref_coarse\icbund_19.ref
 FILE TYPE:DATA   UNIT  560   STATUS:UNKNOWN
 FORMAT:FORMATTED              ACCESS:SEQUENTIAL          

 OPENING ref_coarse\icbund_20.ref
 FILE TYPE:DATA   UNIT  561   STATUS:UNKNOWN
 FORMAT:FORMATTED              ACCESS:SEQUENTIAL          

 OPENING ref_coarse\sconc_1_1.ref
 FILE TYPE:DATA   UNIT  562   STATUS:UNKNOWN
 FORMAT:FORMATTED              ACCESS:SEQUENTIAL          

 OPENING ref_coarse\sconc_1_2.ref
 FILE TYPE:DATA   UNIT  563   STATUS:UNKNOWN
 FORMAT:FORMATTED              ACCESS:SEQUENTIAL          

 OPENING ref_coarse\sconc_1_3.ref
 FILE TYPE:DATA   UNIT  564   STATUS:UNKNOWN
 FORMAT:FORMATTED              ACCESS:SEQUENTIAL          

 OPENING ref_coarse\sconc_1_4.ref
 FILE TYPE:DATA   UNIT  565   STATUS:UNKNOWN
 FORMAT:FORMATTED              ACCESS:SEQUENTIAL          

 OPENING ref_coarse\sconc_1_5.ref
 FILE TYPE:DATA   UNIT  566   STATUS:UNKNOWN
 FORMAT:FORMATTED              ACCESS:SEQUENTIAL          

 OPENING ref_coarse\sconc_1_6.ref
 FILE TYPE:DATA   UNIT  567   STATUS:UNKNOWN
 FORMAT:FORMATTED              ACCESS:SEQUENTIAL          

 OPENING ref_coarse\sconc_1_7.ref
 FILE TYPE:DATA   UNIT  568   STATUS:UNKNOWN
 FORMAT:FORMATTED              ACCESS:SEQUENTIAL          

 OPENING ref_coarse\sconc_1_8.ref
 FILE TYPE:DATA   UNIT  569   STATUS:UNKNOWN
 FORMAT:FORMATTED              ACCESS:SEQUENTIAL          

 OPENING ref_coarse\sconc_1_9.ref
 FILE TYPE:DATA   UNIT  570   STATUS:UNKNOWN
 FORMAT:FORMATTED              ACCESS:SEQUENTIAL          

 OPENING ref_coarse\sconc_1_10.ref
 FILE TYPE:DATA   UNIT  571   STATUS:UNKNOWN
 FORMAT:FORMATTED              ACCESS:SEQUENTIAL          

 OPENING ref_coarse\sconc_1_11.ref
 FILE TYPE:DATA   UNIT  572   STATUS:UNKNOWN
 FORMAT:FORMATTED              ACCESS:SEQUENTIAL          

 OPENING ref_coarse\sconc_1_12.ref
 FILE TYPE:DATA   UNIT  573   STATUS:UNKNOWN
 FORMAT:FORMATTED              ACCESS:SEQUENTIAL          

 OPENING ref_coarse\sconc_1_13.ref
 FILE TYPE:DATA   UNIT  574   STATUS:UNKNOWN
 FORMAT:FORMATTED              ACCESS:SEQUENTIAL          

 OPENING ref_coarse\sconc_1_14.ref
 FILE TYPE:DATA   UNIT  575   STATUS:UNKNOWN
 FORMAT:FORMATTED              ACCESS:SEQUENTIAL          

 OPENING ref_coarse\sconc_1_15.ref
 FILE TYPE:DATA   UNIT  576   STATUS:UNKNOWN
 FORMAT:FORMATTED              ACCESS:SEQUENTIAL          

 OPENING ref_coarse\sconc_1_16.ref
 FILE TYPE:DATA   UNIT  577   STATUS:UNKNOWN
 FORMAT:FORMATTED              ACCESS:SEQUENTIAL          

 OPENING ref_coarse\sconc_1_17.ref
 FILE TYPE:DATA   UNIT  578   STATUS:UNKNOWN
 FORMAT:FORMATTED              ACCESS:SEQUENTIAL          

 OPENING ref_coarse\sconc_1_18.ref
 FILE TYPE:DATA   UNIT  579   STATUS:UNKNOWN
 FORMAT:FORMATTED              ACCESS:SEQUENTIAL          

 OPENING ref_coarse\sconc_1_19.ref
 FILE TYPE:DATA   UNIT  580   STATUS:UNKNOWN
 FORMAT:FORMATTED              ACCESS:SEQUENTIAL          

 OPENING ref_coarse\sconc_1_20.ref
 FILE TYPE:DATA   UNIT  581   STATUS:UNKNOWN
 FORMAT:FORMATTED              ACCESS:SEQUENTIAL          

 OPENING ref_coarse\al_1.ref
 FILE TYPE:DATA   UNIT  582   STATUS:UNKNOWN
 FORMAT:FORMATTED              ACCESS:SEQUENTIAL          

 OPENING ref_coarse\al_2.ref
 FILE TYPE:DATA   UNIT  583   STATUS:UNKNOWN
 FORMAT:FORMATTED              ACCESS:SEQUENTIAL          

 OPENING ref_coarse\al_3.ref
 FILE TYPE:DATA   UNIT  584   STATUS:UNKNOWN
 FORMAT:FORMATTED              ACCESS:SEQUENTIAL          

 OPENING ref_coarse\al_4.ref
 FILE TYPE:DATA   UNIT  585   STATUS:UNKNOWN
 FORMAT:FORMATTED              ACCESS:SEQUENTIAL          

 OPENING ref_coarse\al_5.ref
 FILE TYPE:DATA   UNIT  586   STATUS:UNKNOWN
 FORMAT:FORMATTED              ACCESS:SEQUENTIAL          

 OPENING ref_coarse\al_6.ref
 FILE TYPE:DATA   UNIT  587   STATUS:UNKNOWN
 FORMAT:FORMATTED              ACCESS:SEQUENTIAL          

 OPENING ref_coarse\al_7.ref
 FILE TYPE:DATA   UNIT  588   STATUS:UNKNOWN
 FORMAT:FORMATTED              ACCESS:SEQUENTIAL          

 OPENING ref_coarse\al_8.ref
 FILE TYPE:DATA   UNIT  589   STATUS:UNKNOWN
 FORMAT:FORMATTED              ACCESS:SEQUENTIAL          

 OPENING ref_coarse\al_9.ref
 FILE TYPE:DATA   UNIT  590   STATUS:UNKNOWN
 FORMAT:FORMATTED              ACCESS:SEQUENTIAL          

 OPENING ref_coarse\al_10.ref
 FILE TYPE:DATA   UNIT  591   STATUS:UNKNOWN
 FORMAT:FORMATTED              ACCESS:SEQUENTIAL          

 OPENING ref_coarse\al_11.ref
 FILE TYPE:DATA   UNIT  592   STATUS:UNKNOWN
 FORMAT:FORMATTED              ACCESS:SEQUENTIAL          

 OPENING ref_coarse\al_12.ref
 FILE TYPE:DATA   UNIT  593   STATUS:UNKNOWN
 FORMAT:FORMATTED              ACCESS:SEQUENTIAL          

 OPENING ref_coarse\al_13.ref
 FILE TYPE:DATA   UNIT  594   STATUS:UNKNOWN
 FORMAT:FORMATTED              ACCESS:SEQUENTIAL          

 OPENING ref_coarse\al_14.ref
 FILE TYPE:DATA   UNIT  595   STATUS:UNKNOWN
 FORMAT:FORMATTED              ACCESS:SEQUENTIAL          

 OPENING ref_coarse\al_15.ref
 FILE TYPE:DATA   UNIT  596   STATUS:UNKNOWN
 FORMAT:FORMATTED              ACCESS:SEQUENTIAL          

 OPENING ref_coarse\al_16.ref
 FILE TYPE:DATA   UNIT  597   STATUS:UNKNOWN
 FORMAT:FORMATTED              ACCESS:SEQUENTIAL          

 OPENING ref_coarse\al_17.ref
 FILE TYPE:DATA   UNIT  598   STATUS:UNKNOWN
 FORMAT:FORMATTED              ACCESS:SEQUENTIAL          

 OPENING ref_coarse\al_18.ref
 FILE TYPE:DATA   UNIT  599   STATUS:UNKNOWN
 FORMAT:FORMATTED              ACCESS:SEQUENTIAL          

 OPENING ref_coarse\al_19.ref
 FILE TYPE:DATA   UNIT  600   STATUS:UNKNOWN
 FORMAT:FORMATTED              ACCESS:SEQUENTIAL          

 OPENING ref_coarse\al_20.ref
 FILE TYPE:DATA   UNIT  601   STATUS:UNKNOWN
 FORMAT:FORMATTED              ACCESS:SEQUENTIAL          

 OPENING ref_coarse\trpt_1.ref
 FILE TYPE:DATA   UNIT  602   STATUS:UNKNOWN
 FORMAT:FORMATTED              ACCESS:SEQUENTIAL          

 OPENING ref_coarse\trpv_1.ref
 FILE TYPE:DATA   UNIT  603   STATUS:UNKNOWN
 FORMAT:FORMATTED              ACCESS:SEQUENTIAL          

 OPENING ref_coarse\dmcoef_1.ref
 FILE TYPE:DATA   UNIT  604   STATUS:UNKNOWN
 FORMAT:FORMATTED              ACCESS:SEQUENTIAL          
# Variable density flow                                                                                                                                                                                 

 OPENING henry_coarse.vdf
 FILE TYPE:VDF   UNIT   37   STATUS:OLD    
 FORMAT:FORMATTED              ACCESS:SEQUENTIAL          

 THE FREE FORMAT OPTION HAS BEEN SELECTED

 DISCRETIZATION INPUT DATA READ FROM UNIT   11
 # Discretization file for MODFLOW, generated by Flopy.
   20 LAYERS         1 ROWS       120 COLUMNS
    2 STRESS PERIOD(S) IN SIMULATION
 MODEL TIME UNIT IS DAYS
 MODEL LENGTH UNIT IS METERS
  ----- 
 | M T | # BTN for MT3DMS, generated by Flopy.                                           
 | 3 D | #                                                                               
  ----- 
 THE TRANSPORT MODEL CONSISTS OF    20 LAYER(S)    1 ROW(S)  120 COLUMN(S)
 NUMBER OF STRESS PERIOD(S) FOR TRANSPORT SIMULATION =    2
 NUMBER OF ALL COMPONENTS INCLUDED IN SIMULATION =    1
 NUMBER OF MOBILE COMPONENTS INCLUDED IN SIMULATION =    1
 UNIT FOR TIME IS    D;  UNIT FOR LENGTH IS    M;  UNIT FOR MASS IS   KG
 OPTIONAL PACKAGES INCLUDED IN CURRENT SIMULATION:
  o ADV   ON UNIT 32
  o DSP   ON UNIT 33
  o SSM   ON UNIT 34
  o GCG   ON UNIT 35


 VDF -- VARIABLE DENSITY FLOW, VERSION 1, 2/13/2004
         INPUT READ FROM UNIT 37

 COUPLING BETWEEN FLOW AND TRANSPORT IS EXPLICIT
 VARIABLE-DENSITY WATER-TABLE CORRECTIONS NOT ADDED
 MT3DMS SPECIES USED IN EQUATION OF STATE FOR FLUID DENSITY:          1
 AN UPSTREAM-WEIGHTED ALGORITHM IS USED TO CALCULATE FLUID DENSITY TERMS THAT CONSERVE MASS
  1000.     REFERENCE DENSITY
  24.50     DENSITY SLOPE FOR EQUATION OF STATE
 DENSITY EQUATION OF STATE
 RHO =     1000.00    
  +  24.50     * ( CONC(   1) -  0.000     )



 FIRSTDT SPECIFIED BY USER IN THE VDF FILE IS:   0.1000000E-02
 THE GROUND-WATER TRANSPORT PROCESS IS INACTIVE

 THE OBSERVATION PROCESS IS INACTIVE
 THE SENSITIVITY PROCESS IS INACTIVE
 THE PARAMETER-ESTIMATION PROCESS IS INACTIVE

 MODE: FORWARD

  Confining bed flag for each layer:
   0   0   0   0   0   0   0   0   0   0   0   0   0   0   0   0   0   0   0   0

      21721  ELEMENTS OF GX ARRAY USED OUT OF      21721
       2400  ELEMENTS OF GZ ARRAY USED OUT OF       2400
       2400  ELEMENTS OF IG ARRAY USED OUT OF       2400

                     DELR =  0.100000    

                     DELC =   1.00000    

 OPENING FILE ON UNIT   99:
 ref_coarse\top_1.ref                                                                                                                                                                                    



           TOP ELEVATION OF LAYER 1
 READING ON UNIT   99 WITH FORMAT: (5G13.0)            

 OPENING FILE ON UNIT   99:
 ref_coarse\botm_1.ref                                                                                                                                                                                   



             MODEL LAYER BOTTOM EL. FOR LAYER   1
 READING ON UNIT   99 WITH FORMAT: (5G13.0)            

 OPENING FILE ON UNIT   99:
 ref_coarse\botm_2.ref                                                                                                                                                                                   



             MODEL LAYER BOTTOM EL. FOR LAYER   2
 READING ON UNIT   99 WITH FORMAT: (5G13.0)            

 OPENING FILE ON UNIT   99:
 ref_coarse\botm_3.ref                                                                                                                                                                                   



             MODEL LAYER BOTTOM EL. FOR LAYER   3
 READING ON UNIT   99 WITH FORMAT: (5G13.0)            

 OPENING FILE ON UNIT   99:
 ref_coarse\botm_4.ref                                                                                                                                                                                   



             MODEL LAYER BOTTOM EL. FOR LAYER   4
 READING ON UNIT   99 WITH FORMAT: (5G13.0)            

 OPENING FILE ON UNIT   99:
 ref_coarse\botm_5.ref                                                                                                                                                                                   



             MODEL LAYER BOTTOM EL. FOR LAYER   5
 READING ON UNIT   99 WITH FORMAT: (5G13.0)            

 OPENING FILE ON UNIT   99:
 ref_coarse\botm_6.ref                                                                                                                                                                                   



             MODEL LAYER BOTTOM EL. FOR LAYER   6
 READING ON UNIT   99 WITH FORMAT: (5G13.0)            

 OPENING FILE ON UNIT   99:
 ref_coarse\botm_7.ref                                                                                                                                                                                   



             MODEL LAYER BOTTOM EL. FOR LAYER   7
 READING ON UNIT   99 WITH FORMAT: (5G13.0)            

 OPENING FILE ON UNIT   99:
 ref_coarse\botm_8.ref                                                                                                                                                                                   



             MODEL LAYER BOTTOM EL. FOR LAYER   8
 READING ON UNIT   99 WITH FORMAT: (5G13.0)            

 OPENING FILE ON UNIT   99:
 ref_coarse\botm_9.ref                                                                                                                                                                                   



             MODEL LAYER BOTTOM EL. FOR LAYER   9
 READING ON UNIT   99 WITH FORMAT: (5G13.0)            

 OPENING FILE ON UNIT   99:
 ref_coarse\botm_10.ref                                                                                                                                                                                  



             MODEL LAYER BOTTOM EL. FOR LAYER  10
 READING ON UNIT   99 WITH FORMAT: (5G13.0)            

 OPENING FILE ON UNIT   99:
 ref_coarse\botm_11.ref                                                                                                                                                                                  



             MODEL LAYER BOTTOM EL. FOR LAYER  11
 READING ON UNIT   99 WITH FORMAT: (5G13.0)            

 OPENING FILE ON UNIT   99:
 ref_coarse\botm_12.ref                                                                                                                                                                                  



             MODEL LAYER BOTTOM EL. FOR LAYER  12
 READING ON UNIT   99 WITH FORMAT: (5G13.0)            

 OPENING FILE ON UNIT   99:
 ref_coarse\botm_13.ref                                                                                                                                                                                  



             MODEL LAYER BOTTOM EL. FOR LAYER  13
 READING ON UNIT   99 WITH FORMAT: (5G13.0)            

 OPENING FILE ON UNIT   99:
 ref_coarse\botm_14.ref                                                                                                                                                                                  



             MODEL LAYER BOTTOM EL. FOR LAYER  14
 READING ON UNIT   99 WITH FORMAT: (5G13.0)            

 OPENING FILE ON UNIT   99:
 ref_coarse\botm_15.ref                                                                                                                                                                                  



             MODEL LAYER BOTTOM EL. FOR LAYER  15
 READING ON UNIT   99 WITH FORMAT: (5G13.0)            

 OPENING FILE ON UNIT   99:
 ref_coarse\botm_16.ref                                                                                                                                                                                  



             MODEL LAYER BOTTOM EL. FOR LAYER  16
 READING ON UNIT   99 WITH FORMAT: (5G13.0)            

 OPENING FILE ON UNIT   99:
 ref_coarse\botm_17.ref                                                                                                                                                                                  



             MODEL LAYER BOTTOM EL. FOR LAYER  17
 READING ON UNIT   99 WITH FORMAT: (5G13.0)            

 OPENING FILE ON UNIT   99:
 ref_coarse\botm_18.ref                                                                                                                                                                                  



             MODEL LAYER BOTTOM EL. FOR LAYER  18
 READING ON UNIT   99 WITH FORMAT: (5G13.0)            

 OPENING FILE ON UNIT   99:
 ref_coarse\botm_19.ref                                                                                                                                                                                  



             MODEL LAYER BOTTOM EL. FOR LAYER  19
 READING ON UNIT   99 WITH FORMAT: (5G13.0)            

 OPENING FILE ON UNIT   99:
 ref_coarse\botm_20.ref                                                                                                                                                                                  



             MODEL LAYER BOTTOM EL. FOR LAYER  20
 READING ON UNIT   99 WITH FORMAT: (5G13.0)            


 STRESS PERIOD     LENGTH       TIME STEPS     MULTIPLIER FOR DELT    SS FLAG
 ----------------------------------------------------------------------------
        1         1.000000          1                    1.000         SS
        2        0.3300000          1                    1.000         TR

 COMBINED STEADY-STATE AND TRANSIENT SIMULATION




 LPF1 -- LAYER PROPERTY FLOW PACKAGE, VERSION 1, 1/11/2000
         INPUT READ FROM UNIT   15
 # LPF for MODFLOW, generated by Flopy.
 CELL-BY-CELL FLOWS WILL BE SAVED ON UNIT   53
 HEAD AT CELLS THAT CONVERT TO DRY= -1.00000E+30
 No named parameters

   LAYER FLAGS:
 LAYER       LAYTYP        LAYAVG         CHANI        LAYVKA        LAYWET
 ---------------------------------------------------------------------------
    1             1             0     1.000E+00             0             0
    2             1             0     1.000E+00             0             0
    3             1             0     1.000E+00             0             0
    4             1             0     1.000E+00             0             0
    5             1             0     1.000E+00             0             0
    6             1             0     1.000E+00             0             0
    7             1             0     1.000E+00             0             0
    8             1             0     1.000E+00             0             0
    9             1             0     1.000E+00             0             0
   10             1             0     1.000E+00             0             0
   11             1             0     1.000E+00             0             0
   12             1             0     1.000E+00             0             0
   13             1             0     1.000E+00             0             0
   14             1             0     1.000E+00             0             0
   15             1             0     1.000E+00             0             0
   16             1             0     1.000E+00             0             0
   17             1             0     1.000E+00             0             0
   18             1             0     1.000E+00             0             0
   19             1             0     1.000E+00             0             0
   20             1             0     1.000E+00             0             0

   INTERPRETATION OF LAYER FLAGS:
                        INTERBLOCK     HORIZONTAL    DATA IN
         LAYER TYPE   TRANSMISSIVITY   ANISOTROPY   ARRAY VKA   WETTABILITY
 LAYER      (LAYTYP)      (LAYAVG)       (CHANI)      (LAYVKA)      (LAYWET)
 ---------------------------------------------------------------------------
    1   CONVERTIBLE      HARMONIC     1.000E+00    VERTICAL K  NON-WETTABLE
    2   CONVERTIBLE      HARMONIC     1.000E+00    VERTICAL K  NON-WETTABLE
    3   CONVERTIBLE      HARMONIC     1.000E+00    VERTICAL K  NON-WETTABLE
    4   CONVERTIBLE      HARMONIC     1.000E+00    VERTICAL K  NON-WETTABLE
    5   CONVERTIBLE      HARMONIC     1.000E+00    VERTICAL K  NON-WETTABLE
    6   CONVERTIBLE      HARMONIC     1.000E+00    VERTICAL K  NON-WETTABLE
    7   CONVERTIBLE      HARMONIC     1.000E+00    VERTICAL K  NON-WETTABLE
    8   CONVERTIBLE      HARMONIC     1.000E+00    VERTICAL K  NON-WETTABLE
    9   CONVERTIBLE      HARMONIC     1.000E+00    VERTICAL K  NON-WETTABLE
   10   CONVERTIBLE      HARMONIC     1.000E+00    VERTICAL K  NON-WETTABLE
   11   CONVERTIBLE      HARMONIC     1.000E+00    VERTICAL K  NON-WETTABLE
   12   CONVERTIBLE      HARMONIC     1.000E+00    VERTICAL K  NON-WETTABLE
   13   CONVERTIBLE      HARMONIC     1.000E+00    VERTICAL K  NON-WETTABLE
   14   CONVERTIBLE      HARMONIC     1.000E+00    VERTICAL K  NON-WETTABLE
   15   CONVERTIBLE      HARMONIC     1.000E+00    VERTICAL K  NON-WETTABLE
   16   CONVERTIBLE      HARMONIC     1.000E+00    VERTICAL K  NON-WETTABLE
   17   CONVERTIBLE      HARMONIC     1.000E+00    VERTICAL K  NON-WETTABLE
   18   CONVERTIBLE      HARMONIC     1.000E+00    VERTICAL K  NON-WETTABLE
   19   CONVERTIBLE      HARMONIC     1.000E+00    VERTICAL K  NON-WETTABLE
   20   CONVERTIBLE      HARMONIC     1.000E+00    VERTICAL K  NON-WETTABLE

       9600 ELEMENTS IN X ARRAY ARE USED BY LPF
        120 ELEMENTS IN IX ARRAY ARE USED BY LPF
 # GMG for MODFLOW, generated by Flopy.
 -------------------------------------------------
 GMG -- PCG GEOMETRIC MULTI-GRID SOLUTION PACKAGE:
 -------------------------------------------------
 RCLOSE  = 1.00E-02; INNER CONVERGENCE CRITERION
 IITER   =       30; MAX INNER ITERATIONS            
 HCLOSE  = 1.00E-02; OUTER CONVERGENCE CRITERION
 MXIITER =     1000; MAX OUTER ITERATIONS            
 DAMP    = 1.00E+00; DAMPING PARAMETER          
 IADAMP  =        0; ADAPTIVE DAMPING FLAG           
 IOUTGMG =        0; OUTPUT CONTROL FLAG             
 ISM     =        0; SMOOTHER FLAG                   
 ISC     =        0; COARSENING FLAG                 
 RELAX   = 0.00E+00; RELAXATION PARAMETER       
 -------------------------------------------------
 ILU SMOOTHING IMPLEMENTED
 FULL COARSENING
 -------------------------------------------------
    0 MEGABYTES OF MEMORY ALLOCATED BY GMG
 -------------------------------------------------


       9600  ELEMENTS OF X ARRAY USED OUT OF       9600
          0  ELEMENTS OF Z ARRAY USED OUT OF          1
        120  ELEMENTS OF IX ARRAY USED OUT OF        120
          0  ELEMENTS OF XHS ARRAY USED OUT OF          1

 WETTING CAPABILITY IS NOT ACTIVE IN ANY LAYER



              HYD. COND. ALONG ROWS FOR LAYER   1
 READING ON UNIT  150 WITH FORMAT: (FREE)              

           1          2          3          4          5          6          7          8          9         10         11
          12         13         14         15         16         17         18         19         20         21         22
          23         24         25         26         27         28         29         30         31         32         33
          34         35         36         37         38         39         40         41         42         43         44
          45         46         47         48         49         50         51         52         53         54         55
          56         57         58         59         60         61         62         63         64         65         66
          67         68         69         70         71         72         73         74         75         76         77
          78         79         80         81         82         83         84         85         86         87         88
          89         90         91         92         93         94         95         96         97         98         99
         100        101        102        103        104        105        106        107        108        109        110
         111        112        113        114        115        116        117        118        119        120
 .........................................................................................................................
   1    200.       200.       200.       200.       200.       200.       200.       200.       200.       200.       200.    
        200.       200.       200.       200.       200.       200.       200.       200.       200.       200.       200.    
        200.       200.       200.       200.       200.       200.       200.       200.       200.       200.       200.    
        200.       200.       200.       200.       200.       200.       200.       200.       200.       200.       200.    
        200.       200.       200.       200.       200.       200.       200.       200.       200.       200.       200.    
        200.       200.       200.       200.       200.       200.       200.       200.       200.       200.       200.    
        200.       200.       200.       200.       200.       200.       200.       200.       200.       200.       200.    
        200.       200.       200.       200.       200.       200.       200.       200.       200.       200.       200.    
        200.       200.       200.       200.       200.       200.       200.       200.       200.       200.       200.    
        200.       200.       200.       200.       200.       200.       200.       200.       200.       200.       200.    
        200.       200.       200.       200.       200.       200.       200.       200.       200.       200.    



                VERTICAL HYD. COND. FOR LAYER   1
 READING ON UNIT  151 WITH FORMAT: (FREE)              

           1          2          3          4          5          6          7          8          9         10         11
          12         13         14         15         16         17         18         19         20         21         22
          23         24         25         26         27         28         29         30         31         32         33
          34         35         36         37         38         39         40         41         42         43         44
          45         46         47         48         49         50         51         52         53         54         55
          56         57         58         59         60         61         62         63         64         65         66
          67         68         69         70         71         72         73         74         75         76         77
          78         79         80         81         82         83         84         85         86         87         88
          89         90         91         92         93         94         95         96         97         98         99
         100        101        102        103        104        105        106        107        108        109        110
         111        112        113        114        115        116        117        118        119        120
 .........................................................................................................................
   1    200.       200.       200.       200.       200.       200.       200.       200.       200.       200.       200.    
        200.       200.       200.       200.       200.       200.       200.       200.       200.       200.       200.    
        200.       200.       200.       200.       200.       200.       200.       200.       200.       200.       200.    
        200.       200.       200.       200.       200.       200.       200.       200.       200.       200.       200.    
        200.       200.       200.       200.       200.       200.       200.       200.       200.       200.       200.    
        200.       200.       200.       200.       200.       200.       200.       200.       200.       200.       200.    
        200.       200.       200.       200.       200.       200.       200.       200.       200.       200.       200.    
        200.       200.       200.       200.       200.       200.       200.       200.       200.       200.       200.    
        200.       200.       200.       200.       200.       200.       200.       200.       200.       200.       200.    
        200.       200.       200.       200.       200.       200.       200.       200.       200.       200.       200.    
        200.       200.       200.       200.       200.       200.       200.       200.       200.       200.    

 OPENING FILE ON UNIT   99:
 ref_coarse\ss_1_1.ref                                                                                                                                                                                   



                   SPECIFIC STORAGE FOR LAYER   1
 READING ON UNIT   99 WITH FORMAT: (120G13.0)          

 OPENING FILE ON UNIT   99:
 ref_coarse\sy_1_1.ref                                                                                                                                                                                   



                     SPECIFIC YIELD FOR LAYER   1
 READING ON UNIT   99 WITH FORMAT: (120G13.0)          



              HYD. COND. ALONG ROWS FOR LAYER   2
 READING ON UNIT  150 WITH FORMAT: (FREE)              

           1          2          3          4          5          6          7          8          9         10         11
          12         13         14         15         16         17         18         19         20         21         22
          23         24         25         26         27         28         29         30         31         32         33
          34         35         36         37         38         39         40         41         42         43         44
          45         46         47         48         49         50         51         52         53         54         55
          56         57         58         59         60         61         62         63         64         65         66
          67         68         69         70         71         72         73         74         75         76         77
          78         79         80         81         82         83         84         85         86         87         88
          89         90         91         92         93         94         95         96         97         98         99
         100        101        102        103        104        105        106        107        108        109        110
         111        112        113        114        115        116        117        118        119        120
 .........................................................................................................................
   1    200.       200.       200.       200.       200.       200.       200.       200.       200.       200.       200.    
        200.       200.       200.       200.       200.       200.       200.       200.       200.       200.       200.    
        200.       200.       200.       200.       200.       200.       200.       200.       200.       200.       200.    
        200.       200.       200.       200.       200.       200.       200.       200.       200.       200.       200.    
        200.       200.       200.       200.       200.       200.       200.       200.       200.       200.       200.    
        200.       200.       200.       200.       200.       200.       200.       200.       200.       200.       200.    
        200.       200.       200.       200.       200.       200.       200.       200.       200.       200.       200.    
        200.       200.       200.       200.       200.       200.       200.       200.       200.       200.       200.    
        200.       200.       200.       200.       200.       200.       200.       200.       200.       200.       200.    
        200.       200.       200.       200.       200.       200.       200.       200.       200.       200.       200.    
        200.       200.       200.       200.       200.       200.       200.       200.       200.       200.    



                VERTICAL HYD. COND. FOR LAYER   2
 READING ON UNIT  151 WITH FORMAT: (FREE)              

           1          2          3          4          5          6          7          8          9         10         11
          12         13         14         15         16         17         18         19         20         21         22
          23         24         25         26         27         28         29         30         31         32         33
          34         35         36         37         38         39         40         41         42         43         44
          45         46         47         48         49         50         51         52         53         54         55
          56         57         58         59         60         61         62         63         64         65         66
          67         68         69         70         71         72         73         74         75         76         77
          78         79         80         81         82         83         84         85         86         87         88
          89         90         91         92         93         94         95         96         97         98         99
         100        101        102        103        104        105        106        107        108        109        110
         111        112        113        114        115        116        117        118        119        120
 .........................................................................................................................
   1    200.       200.       200.       200.       200.       200.       200.       200.       200.       200.       200.    
        200.       200.       200.       200.       200.       200.       200.       200.       200.       200.       200.    
        200.       200.       200.       200.       200.       200.       200.       200.       200.       200.       200.    
        200.       200.       200.       200.       200.       200.       200.       200.       200.       200.       200.    
        200.       200.       200.       200.       200.       200.       200.       200.       200.       200.       200.    
        200.       200.       200.       200.       200.       200.       200.       200.       200.       200.       200.    
        200.       200.       200.       200.       200.       200.       200.       200.       200.       200.       200.    
        200.       200.       200.       200.       200.       200.       200.       200.       200.       200.       200.    
        200.       200.       200.       200.       200.       200.       200.       200.       200.       200.       200.    
        200.       200.       200.       200.       200.       200.       200.       200.       200.       200.       200.    
        200.       200.       200.       200.       200.       200.       200.       200.       200.       200.    

 OPENING FILE ON UNIT   99:
 ref_coarse\ss_2_1.ref                                                                                                                                                                                   



                   SPECIFIC STORAGE FOR LAYER   2
 READING ON UNIT   99 WITH FORMAT: (120G13.0)          

 OPENING FILE ON UNIT   99:
 ref_coarse\sy_2_1.ref                                                                                                                                                                                   



                     SPECIFIC YIELD FOR LAYER   2
 READING ON UNIT   99 WITH FORMAT: (120G13.0)          



              HYD. COND. ALONG ROWS FOR LAYER   3
 READING ON UNIT  150 WITH FORMAT: (FREE)              

           1          2          3          4          5          6          7          8          9         10         11
          12         13         14         15         16         17         18         19         20         21         22
          23         24         25         26         27         28         29         30         31         32         33
          34         35         36         37         38         39         40         41         42         43         44
          45         46         47         48         49         50         51         52         53         54         55
          56         57         58         59         60         61         62         63         64         65         66
          67         68         69         70         71         72         73         74         75         76         77
          78         79         80         81         82         83         84         85         86         87         88
          89         90         91         92         93         94         95         96         97         98         99
         100        101        102        103        104        105        106        107        108        109        110
         111        112        113        114        115        116        117        118        119        120
 .........................................................................................................................
   1    200.       200.       200.       200.       200.       200.       200.       200.       200.       200.       200.    
        200.       200.       200.       200.       200.       200.       200.       200.       200.       200.       200.    
        200.       200.       200.       200.       200.       200.       200.       200.       200.       200.       200.    
        200.       200.       200.       200.       200.       200.       200.       200.       200.       200.       200.    
        200.       200.       200.       200.       200.       200.       200.       200.       200.       200.       200.    
        200.       200.       200.       200.       200.       200.       200.       200.       200.       200.       200.    
        200.       200.       200.       200.       200.       200.       200.       200.       200.       200.       200.    
        200.       200.       200.       200.       200.       200.       200.       200.       200.       200.       200.    
        200.       200.       200.       200.       200.       200.       200.       200.       200.       200.       200.    
        200.       200.       200.       200.       200.       200.       200.       200.       200.       200.       200.    
        200.       200.       200.       200.       200.       200.       200.       200.       200.       200.    



                VERTICAL HYD. COND. FOR LAYER   3
 READING ON UNIT  151 WITH FORMAT: (FREE)              

           1          2          3          4          5          6          7          8          9         10         11
          12         13         14         15         16         17         18         19         20         21         22
          23         24         25         26         27         28         29         30         31         32         33
          34         35         36         37         38         39         40         41         42         43         44
          45         46         47         48         49         50         51         52         53         54         55
          56         57         58         59         60         61         62         63         64         65         66
          67         68         69         70         71         72         73         74         75         76         77
          78         79         80         81         82         83         84         85         86         87         88
          89         90         91         92         93         94         95         96         97         98         99
         100        101        102        103        104        105        106        107        108        109        110
         111        112        113        114        115        116        117        118        119        120
 .........................................................................................................................
   1    200.       200.       200.       200.       200.       200.       200.       200.       200.       200.       200.    
        200.       200.       200.       200.       200.       200.       200.       200.       200.       200.       200.    
        200.       200.       200.       200.       200.       200.       200.       200.       200.       200.       200.    
        200.       200.       200.       200.       200.       200.       200.       200.       200.       200.       200.    
        200.       200.       200.       200.       200.       200.       200.       200.       200.       200.       200.    
        200.       200.       200.       200.       200.       200.       200.       200.       200.       200.       200.    
        200.       200.       200.       200.       200.       200.       200.       200.       200.       200.       200.    
        200.       200.       200.       200.       200.       200.       200.       200.       200.       200.       200.    
        200.       200.       200.       200.       200.       200.       200.       200.       200.       200.       200.    
        200.       200.       200.       200.       200.       200.       200.       200.       200.       200.       200.    
        200.       200.       200.       200.       200.       200.       200.       200.       200.       200.    

 OPENING FILE ON UNIT   99:
 ref_coarse\ss_3_1.ref                                                                                                                                                                                   



                   SPECIFIC STORAGE FOR LAYER   3
 READING ON UNIT   99 WITH FORMAT: (120G13.0)          

 OPENING FILE ON UNIT   99:
 ref_coarse\sy_3_1.ref                                                                                                                                                                                   



                     SPECIFIC YIELD FOR LAYER   3
 READING ON UNIT   99 WITH FORMAT: (120G13.0)          



              HYD. COND. ALONG ROWS FOR LAYER   4
 READING ON UNIT  150 WITH FORMAT: (FREE)              

           1          2          3          4          5          6          7          8          9         10         11
          12         13         14         15         16         17         18         19         20         21         22
          23         24         25         26         27         28         29         30         31         32         33
          34         35         36         37         38         39         40         41         42         43         44
          45         46         47         48         49         50         51         52         53         54         55
          56         57         58         59         60         61         62         63         64         65         66
          67         68         69         70         71         72         73         74         75         76         77
          78         79         80         81         82         83         84         85         86         87         88
          89         90         91         92         93         94         95         96         97         98         99
         100        101        102        103        104        105        106        107        108        109        110
         111        112        113        114        115        116        117        118        119        120
 .........................................................................................................................
   1    200.       200.       200.       200.       200.       200.       200.       200.       200.       200.       200.    
        200.       200.       200.       200.       200.       200.       200.       200.       200.       200.       200.    
        200.       200.       200.       200.       200.       200.       200.       200.       200.       200.       200.    
        200.       200.       200.       200.       200.       200.       200.       200.       200.       200.       200.    
        200.       200.       200.       200.       200.       200.       200.       200.       200.       200.       200.    
        200.       200.       200.       200.       200.       200.       200.       200.       200.       200.       200.    
        200.       200.       200.       200.       200.       200.       200.       200.       200.       200.       200.    
        200.       200.       200.       200.       200.       200.       200.       200.       200.       200.       200.    
        200.       200.       200.       200.       200.       200.       200.       200.       200.       200.       200.    
        200.       200.       200.       200.       200.       200.       200.       200.       200.       200.       200.    
        200.       200.       200.       200.       200.       200.       200.       200.       200.       200.    



                VERTICAL HYD. COND. FOR LAYER   4
 READING ON UNIT  151 WITH FORMAT: (FREE)              

           1          2          3          4          5          6          7          8          9         10         11
          12         13         14         15         16         17         18         19         20         21         22
          23         24         25         26         27         28         29         30         31         32         33
          34         35         36         37         38         39         40         41         42         43         44
          45         46         47         48         49         50         51         52         53         54         55
          56         57         58         59         60         61         62         63         64         65         66
          67         68         69         70         71         72         73         74         75         76         77
          78         79         80         81         82         83         84         85         86         87         88
          89         90         91         92         93         94         95         96         97         98         99
         100        101        102        103        104        105        106        107        108        109        110
         111        112        113        114        115        116        117        118        119        120
 .........................................................................................................................
   1    200.       200.       200.       200.       200.       200.       200.       200.       200.       200.       200.    
        200.       200.       200.       200.       200.       200.       200.       200.       200.       200.       200.    
        200.       200.       200.       200.       200.       200.       200.       200.       200.       200.       200.    
        200.       200.       200.       200.       200.       200.       200.       200.       200.       200.       200.    
        200.       200.       200.       200.       200.       200.       200.       200.       200.       200.       200.    
        200.       200.       200.       200.       200.       200.       200.       200.       200.       200.       200.    
        200.       200.       200.       200.       200.       200.       200.       200.       200.       200.       200.    
        200.       200.       200.       200.       200.       200.       200.       200.       200.       200.       200.    
        200.       200.       200.       200.       200.       200.       200.       200.       200.       200.       200.    
        200.       200.       200.       200.       200.       200.       200.       200.       200.       200.       200.    
        200.       200.       200.       200.       200.       200.       200.       200.       200.       200.    

 OPENING FILE ON UNIT   99:
 ref_coarse\ss_4_1.ref                                                                                                                                                                                   



                   SPECIFIC STORAGE FOR LAYER   4
 READING ON UNIT   99 WITH FORMAT: (120G13.0)          

 OPENING FILE ON UNIT   99:
 ref_coarse\sy_4_1.ref                                                                                                                                                                                   



                     SPECIFIC YIELD FOR LAYER   4
 READING ON UNIT   99 WITH FORMAT: (120G13.0)          



              HYD. COND. ALONG ROWS FOR LAYER   5
 READING ON UNIT  150 WITH FORMAT: (FREE)              

           1          2          3          4          5          6          7          8          9         10         11
          12         13         14         15         16         17         18         19         20         21         22
          23         24         25         26         27         28         29         30         31         32         33
          34         35         36         37         38         39         40         41         42         43         44
          45         46         47         48         49         50         51         52         53         54         55
          56         57         58         59         60         61         62         63         64         65         66
          67         68         69         70         71         72         73         74         75         76         77
          78         79         80         81         82         83         84         85         86         87         88
          89         90         91         92         93         94         95         96         97         98         99
         100        101        102        103        104        105        106        107        108        109        110
         111        112        113        114        115        116        117        118        119        120
 .........................................................................................................................
   1    200.       200.       200.       200.       200.       200.       200.       200.       200.       200.       200.    
        200.       200.       200.       200.       200.       200.       200.       200.       200.       200.       200.    
        200.       200.       200.       200.       200.       200.       200.       200.       200.       200.       200.    
        200.       200.       200.       200.       200.       200.       200.       200.       200.       200.       200.    
        200.       200.       200.       200.       200.       200.       200.       200.       200.       200.       200.    
        200.       200.       200.       200.       200.       200.       200.       200.       200.       200.       200.    
        200.       200.       200.       200.       200.       200.       200.       200.       200.       200.       200.    
        200.       200.       200.       200.       200.       200.       200.       200.       200.       200.       200.    
        200.       200.       200.       200.       200.       200.       200.       200.       200.       200.       200.    
        200.       200.       200.       200.       200.       200.       200.       200.       200.       200.       200.    
        200.       200.       200.       200.       200.       200.       200.       200.       200.       200.    



                VERTICAL HYD. COND. FOR LAYER   5
 READING ON UNIT  151 WITH FORMAT: (FREE)              

           1          2          3          4          5          6          7          8          9         10         11
          12         13         14         15         16         17         18         19         20         21         22
          23         24         25         26         27         28         29         30         31         32         33
          34         35         36         37         38         39         40         41         42         43         44
          45         46         47         48         49         50         51         52         53         54         55
          56         57         58         59         60         61         62         63         64         65         66
          67         68         69         70         71         72         73         74         75         76         77
          78         79         80         81         82         83         84         85         86         87         88
          89         90         91         92         93         94         95         96         97         98         99
         100        101        102        103        104        105        106        107        108        109        110
         111        112        113        114        115        116        117        118        119        120
 .........................................................................................................................
   1    200.       200.       200.       200.       200.       200.       200.       200.       200.       200.       200.    
        200.       200.       200.       200.       200.       200.       200.       200.       200.       200.       200.    
        200.       200.       200.       200.       200.       200.       200.       200.       200.       200.       200.    
        200.       200.       200.       200.       200.       200.       200.       200.       200.       200.       200.    
        200.       200.       200.       200.       200.       200.       200.       200.       200.       200.       200.    
        200.       200.       200.       200.       200.       200.       200.       200.       200.       200.       200.    
        200.       200.       200.       200.       200.       200.       200.       200.       200.       200.       200.    
        200.       200.       200.       200.       200.       200.       200.       200.       200.       200.       200.    
        200.       200.       200.       200.       200.       200.       200.       200.       200.       200.       200.    
        200.       200.       200.       200.       200.       200.       200.       200.       200.       200.       200.    
        200.       200.       200.       200.       200.       200.       200.       200.       200.       200.    

 OPENING FILE ON UNIT   99:
 ref_coarse\ss_5_1.ref                                                                                                                                                                                   



                   SPECIFIC STORAGE FOR LAYER   5
 READING ON UNIT   99 WITH FORMAT: (120G13.0)          

 OPENING FILE ON UNIT   99:
 ref_coarse\sy_5_1.ref                                                                                                                                                                                   



                     SPECIFIC YIELD FOR LAYER   5
 READING ON UNIT   99 WITH FORMAT: (120G13.0)          



              HYD. COND. ALONG ROWS FOR LAYER   6
 READING ON UNIT  150 WITH FORMAT: (FREE)              

           1          2          3          4          5          6          7          8          9         10         11
          12         13         14         15         16         17         18         19         20         21         22
          23         24         25         26         27         28         29         30         31         32         33
          34         35         36         37         38         39         40         41         42         43         44
          45         46         47         48         49         50         51         52         53         54         55
          56         57         58         59         60         61         62         63         64         65         66
          67         68         69         70         71         72         73         74         75         76         77
          78         79         80         81         82         83         84         85         86         87         88
          89         90         91         92         93         94         95         96         97         98         99
         100        101        102        103        104        105        106        107        108        109        110
         111        112        113        114        115        116        117        118        119        120
 .........................................................................................................................
   1    200.       200.       200.       200.       200.       200.       200.       200.       200.       200.       200.    
        200.       200.       200.       200.       200.       200.       200.       200.       200.       200.       200.    
        200.       200.       200.       200.       200.       200.       200.       200.       200.       200.       200.    
        200.       200.       200.       200.       200.       200.       200.       200.       200.       200.       200.    
        200.       200.       200.       200.       200.       200.       200.       200.       200.       200.       200.    
        200.       200.       200.       200.       200.       200.       200.       200.       200.       200.       200.    
        200.       200.       200.       200.       200.       200.       200.       200.       200.       200.       200.    
        200.       200.       200.       200.       200.       200.       200.       200.       200.       200.       200.    
        200.       200.       200.       200.       200.       200.       200.       200.       200.       200.       200.    
        200.       200.       200.       200.       200.       200.       200.       200.       200.       200.       200.    
        200.       200.       200.       200.       200.       200.       200.       200.       200.       200.    



                VERTICAL HYD. COND. FOR LAYER   6
 READING ON UNIT  151 WITH FORMAT: (FREE)              

           1          2          3          4          5          6          7          8          9         10         11
          12         13         14         15         16         17         18         19         20         21         22
          23         24         25         26         27         28         29         30         31         32         33
          34         35         36         37         38         39         40         41         42         43         44
          45         46         47         48         49         50         51         52         53         54         55
          56         57         58         59         60         61         62         63         64         65         66
          67         68         69         70         71         72         73         74         75         76         77
          78         79         80         81         82         83         84         85         86         87         88
          89         90         91         92         93         94         95         96         97         98         99
         100        101        102        103        104        105        106        107        108        109        110
         111        112        113        114        115        116        117        118        119        120
 .........................................................................................................................
   1    200.       200.       200.       200.       200.       200.       200.       200.       200.       200.       200.    
        200.       200.       200.       200.       200.       200.       200.       200.       200.       200.       200.    
        200.       200.       200.       200.       200.       200.       200.       200.       200.       200.       200.    
        200.       200.       200.       200.       200.       200.       200.       200.       200.       200.       200.    
        200.       200.       200.       200.       200.       200.       200.       200.       200.       200.       200.    
        200.       200.       200.       200.       200.       200.       200.       200.       200.       200.       200.    
        200.       200.       200.       200.       200.       200.       200.       200.       200.       200.       200.    
        200.       200.       200.       200.       200.       200.       200.       200.       200.       200.       200.    
        200.       200.       200.       200.       200.       200.       200.       200.       200.       200.       200.    
        200.       200.       200.       200.       200.       200.       200.       200.       200.       200.       200.    
        200.       200.       200.       200.       200.       200.       200.       200.       200.       200.    

 OPENING FILE ON UNIT   99:
 ref_coarse\ss_6_1.ref                                                                                                                                                                                   



                   SPECIFIC STORAGE FOR LAYER   6
 READING ON UNIT   99 WITH FORMAT: (120G13.0)          

 OPENING FILE ON UNIT   99:
 ref_coarse\sy_6_1.ref                                                                                                                                                                                   



                     SPECIFIC YIELD FOR LAYER   6
 READING ON UNIT   99 WITH FORMAT: (120G13.0)          



              HYD. COND. ALONG ROWS FOR LAYER   7
 READING ON UNIT  150 WITH FORMAT: (FREE)              

           1          2          3          4          5          6          7          8          9         10         11
          12         13         14         15         16         17         18         19         20         21         22
          23         24         25         26         27         28         29         30         31         32         33
          34         35         36         37         38         39         40         41         42         43         44
          45         46         47         48         49         50         51         52         53         54         55
          56         57         58         59         60         61         62         63         64         65         66
          67         68         69         70         71         72         73         74         75         76         77
          78         79         80         81         82         83         84         85         86         87         88
          89         90         91         92         93         94         95         96         97         98         99
         100        101        102        103        104        105        106        107        108        109        110
         111        112        113        114        115        116        117        118        119        120
 .........................................................................................................................
   1    200.       200.       200.       200.       200.       200.       200.       200.       200.       200.       200.    
        200.       200.       200.       200.       200.       200.       200.       200.       200.       200.       200.    
        200.       200.       200.       200.       200.       200.       200.       200.       200.       200.       200.    
        200.       200.       200.       200.       200.       200.       200.       200.       200.       200.       200.    
        200.       200.       200.       200.       200.       200.       200.       200.       200.       200.       200.    
        200.       200.       200.       200.       200.       200.       200.       200.       200.       200.       200.    
        200.       200.       200.       200.       200.       200.       200.       200.       200.       200.       200.    
        200.       200.       200.       200.       200.       200.       200.       200.       200.       200.       200.    
        200.       200.       200.       200.       200.       200.       200.       200.       200.       200.       200.    
        200.       200.       200.       200.       200.       200.       200.       200.       200.       200.       200.    
        200.       200.       200.       200.       200.       200.       200.       200.       200.       200.    



                VERTICAL HYD. COND. FOR LAYER   7
 READING ON UNIT  151 WITH FORMAT: (FREE)              

           1          2          3          4          5          6          7          8          9         10         11
          12         13         14         15         16         17         18         19         20         21         22
          23         24         25         26         27         28         29         30         31         32         33
          34         35         36         37         38         39         40         41         42         43         44
          45         46         47         48         49         50         51         52         53         54         55
          56         57         58         59         60         61         62         63         64         65         66
          67         68         69         70         71         72         73         74         75         76         77
          78         79         80         81         82         83         84         85         86         87         88
          89         90         91         92         93         94         95         96         97         98         99
         100        101        102        103        104        105        106        107        108        109        110
         111        112        113        114        115        116        117        118        119        120
 .........................................................................................................................
   1    200.       200.       200.       200.       200.       200.       200.       200.       200.       200.       200.    
        200.       200.       200.       200.       200.       200.       200.       200.       200.       200.       200.    
        200.       200.       200.       200.       200.       200.       200.       200.       200.       200.       200.    
        200.       200.       200.       200.       200.       200.       200.       200.       200.       200.       200.    
        200.       200.       200.       200.       200.       200.       200.       200.       200.       200.       200.    
        200.       200.       200.       200.       200.       200.       200.       200.       200.       200.       200.    
        200.       200.       200.       200.       200.       200.       200.       200.       200.       200.       200.    
        200.       200.       200.       200.       200.       200.       200.       200.       200.       200.       200.    
        200.       200.       200.       200.       200.       200.       200.       200.       200.       200.       200.    
        200.       200.       200.       200.       200.       200.       200.       200.       200.       200.       200.    
        200.       200.       200.       200.       200.       200.       200.       200.       200.       200.    

 OPENING FILE ON UNIT   99:
 ref_coarse\ss_7_1.ref                                                                                                                                                                                   



                   SPECIFIC STORAGE FOR LAYER   7
 READING ON UNIT   99 WITH FORMAT: (120G13.0)          

 OPENING FILE ON UNIT   99:
 ref_coarse\sy_7_1.ref                                                                                                                                                                                   



                     SPECIFIC YIELD FOR LAYER   7
 READING ON UNIT   99 WITH FORMAT: (120G13.0)          



              HYD. COND. ALONG ROWS FOR LAYER   8
 READING ON UNIT  150 WITH FORMAT: (FREE)              

           1          2          3          4          5          6          7          8          9         10         11
          12         13         14         15         16         17         18         19         20         21         22
          23         24         25         26         27         28         29         30         31         32         33
          34         35         36         37         38         39         40         41         42         43         44
          45         46         47         48         49         50         51         52         53         54         55
          56         57         58         59         60         61         62         63         64         65         66
          67         68         69         70         71         72         73         74         75         76         77
          78         79         80         81         82         83         84         85         86         87         88
          89         90         91         92         93         94         95         96         97         98         99
         100        101        102        103        104        105        106        107        108        109        110
         111        112        113        114        115        116        117        118        119        120
[...]
 = 0.2500E-01(WHEN MIN. R.F.=1)  AT K=   5, I=   1, J=   1
     2 CALLS TO GCG PACKAGE FOR TRANSPORT TIME STEP  28 IN FLOW TIME STEP   1 STRESS PERIOD   2
     5 TOTAL ITERATIONS
 
 SOLVING FOR HEAD 
 FLOW MODEL IS TRANSIENT


 MAXIMUM STEPSIZE DURING WHICH ANY PARTICLE CANNOT MOVE MORE THAN ONE CELL
 = 0.5524E-02(WHEN MIN. R.F.=1)  AT K=   1, I=   1, J= 119

 MAXIMUM STEPSIZE WHICH MEETS STABILITY CRITERION OF THE ADVECTION TERM
 (FOR PURE FINITE-DIFFERENCE OPTION, MIXELM=0) 
 = 0.3812E-02(WHEN MIN. R.F.=1)  AT K=   2, I=   1, J= 120


 TOTAL NUMBER OF POINT SOURCES/SINKS PRESENT IN THE FLOW MODEL =    40

 MAXIMUM STEPSIZE WHICH MEETS STABILITY CRITERION OF THE SINK & SOURCE TERM
 = 0.1655E-01(WHEN MIN. R.F.=1)  AT K=  20, I=   1, J= 120

 MAXIMUM STEPSIZE WHICH MEETS STABILITY CRITERION OF THE DISPERSION TERM
 = 0.2500E-01(WHEN MIN. R.F.=1)  AT K=   5, I=   1, J=   1
     2 CALLS TO GCG PACKAGE FOR TRANSPORT TIME STEP  29 IN FLOW TIME STEP   1 STRESS PERIOD   2
     5 TOTAL ITERATIONS
 
 SOLVING FOR HEAD 
 FLOW MODEL IS TRANSIENT


 MAXIMUM STEPSIZE DURING WHICH ANY PARTICLE CANNOT MOVE MORE THAN ONE CELL
 = 0.5539E-02(WHEN MIN. R.F.=1)  AT K=   1, I=   1, J= 119

 MAXIMUM STEPSIZE WHICH MEETS STABILITY CRITERION OF THE ADVECTION TERM
 (FOR PURE FINITE-DIFFERENCE OPTION, MIXELM=0) 
 = 0.3828E-02(WHEN MIN. R.F.=1)  AT K=   2, I=   1, J= 120


 TOTAL NUMBER OF POINT SOURCES/SINKS PRESENT IN THE FLOW MODEL =    40

 MAXIMUM STEPSIZE WHICH MEETS STABILITY CRITERION OF THE SINK & SOURCE TERM
 = 0.1671E-01(WHEN MIN. R.F.=1)  AT K=  20, I=   1, J= 120

 MAXIMUM STEPSIZE WHICH MEETS STABILITY CRITERION OF THE DISPERSION TERM
 = 0.2500E-01(WHEN MIN. R.F.=1)  AT K=   5, I=   1, J=   1
     2 CALLS TO GCG PACKAGE FOR TRANSPORT TIME STEP  30 IN FLOW TIME STEP   1 STRESS PERIOD   2
     5 TOTAL ITERATIONS
 
 SOLVING FOR HEAD 
 FLOW MODEL IS TRANSIENT


 MAXIMUM STEPSIZE DURING WHICH ANY PARTICLE CANNOT MOVE MORE THAN ONE CELL
 = 0.5555E-02(WHEN MIN. R.F.=1)  AT K=   1, I=   1, J= 119

 MAXIMUM STEPSIZE WHICH MEETS STABILITY CRITERION OF THE ADVECTION TERM
 (FOR PURE FINITE-DIFFERENCE OPTION, MIXELM=0) 
 = 0.3844E-02(WHEN MIN. R.F.=1)  AT K=   2, I=   1, J= 120


 TOTAL NUMBER OF POINT SOURCES/SINKS PRESENT IN THE FLOW MODEL =    40

 MAXIMUM STEPSIZE WHICH MEETS STABILITY CRITERION OF THE SINK & SOURCE TERM
 = 0.1687E-01(WHEN MIN. R.F.=1)  AT K=  20, I=   1, J= 120

 MAXIMUM STEPSIZE WHICH MEETS STABILITY CRITERION OF THE DISPERSION TERM
 = 0.2500E-01(WHEN MIN. R.F.=1)  AT K=   5, I=   1, J=   1
     2 CALLS TO GCG PACKAGE FOR TRANSPORT TIME STEP  31 IN FLOW TIME STEP   1 STRESS PERIOD   2
     5 TOTAL ITERATIONS
 
 SOLVING FOR HEAD 
 FLOW MODEL IS TRANSIENT


 MAXIMUM STEPSIZE DURING WHICH ANY PARTICLE CANNOT MOVE MORE THAN ONE CELL
 = 0.5570E-02(WHEN MIN. R.F.=1)  AT K=   1, I=   1, J= 119

 MAXIMUM STEPSIZE WHICH MEETS STABILITY CRITERION OF THE ADVECTION TERM
 (FOR PURE FINITE-DIFFERENCE OPTION, MIXELM=0) 
 = 0.3861E-02(WHEN MIN. R.F.=1)  AT K=   2, I=   1, J= 120


 TOTAL NUMBER OF POINT SOURCES/SINKS PRESENT IN THE FLOW MODEL =    40

 MAXIMUM STEPSIZE WHICH MEETS STABILITY CRITERION OF THE SINK & SOURCE TERM
 = 0.1702E-01(WHEN MIN. R.F.=1)  AT K=  20, I=   1, J= 120

 MAXIMUM STEPSIZE WHICH MEETS STABILITY CRITERION OF THE DISPERSION TERM
 = 0.2500E-01(WHEN MIN. R.F.=1)  AT K=   5, I=   1, J=   1
     2 CALLS TO GCG PACKAGE FOR TRANSPORT TIME STEP  32 IN FLOW TIME STEP   1 STRESS PERIOD   2
     5 TOTAL ITERATIONS
 
 SOLVING FOR HEAD 
 FLOW MODEL IS TRANSIENT


 MAXIMUM STEPSIZE DURING WHICH ANY PARTICLE CANNOT MOVE MORE THAN ONE CELL
 = 0.5585E-02(WHEN MIN. R.F.=1)  AT K=   1, I=   1, J= 119

 MAXIMUM STEPSIZE WHICH MEETS STABILITY CRITERION OF THE ADVECTION TERM
 (FOR PURE FINITE-DIFFERENCE OPTION, MIXELM=0) 
 = 0.3877E-02(WHEN MIN. R.F.=1)  AT K=   2, I=   1, J= 120


 TOTAL NUMBER OF POINT SOURCES/SINKS PRESENT IN THE FLOW MODEL =    40

 MAXIMUM STEPSIZE WHICH MEETS STABILITY CRITERION OF THE SINK & SOURCE TERM
 = 0.1718E-01(WHEN MIN. R.F.=1)  AT K=  20, I=   1, J= 120

 MAXIMUM STEPSIZE WHICH MEETS STABILITY CRITERION OF THE DISPERSION TERM
 = 0.2500E-01(WHEN MIN. R.F.=1)  AT K=   5, I=   1, J=   1
     2 CALLS TO GCG PACKAGE FOR TRANSPORT TIME STEP  33 IN FLOW TIME STEP   1 STRESS PERIOD   2
     5 TOTAL ITERATIONS
 
 SOLVING FOR HEAD 
 FLOW MODEL IS TRANSIENT


 MAXIMUM STEPSIZE DURING WHICH ANY PARTICLE CANNOT MOVE MORE THAN ONE CELL
 = 0.5601E-02(WHEN MIN. R.F.=1)  AT K=   1, I=   1, J= 119

 MAXIMUM STEPSIZE WHICH MEETS STABILITY CRITERION OF THE ADVECTION TERM
 (FOR PURE FINITE-DIFFERENCE OPTION, MIXELM=0) 
 = 0.3893E-02(WHEN MIN. R.F.=1)  AT K=   2, I=   1, J= 120


 TOTAL NUMBER OF POINT SOURCES/SINKS PRESENT IN THE FLOW MODEL =    40

 MAXIMUM STEPSIZE WHICH MEETS STABILITY CRITERION OF THE SINK & SOURCE TERM
 = 0.1733E-01(WHEN MIN. R.F.=1)  AT K=  20, I=   1, J= 120

 MAXIMUM STEPSIZE WHICH MEETS STABILITY CRITERION OF THE DISPERSION TERM
 = 0.2500E-01(WHEN MIN. R.F.=1)  AT K=   5, I=   1, J=   1
     2 CALLS TO GCG PACKAGE FOR TRANSPORT TIME STEP  34 IN FLOW TIME STEP   1 STRESS PERIOD   2
     5 TOTAL ITERATIONS
 
 SOLVING FOR HEAD 
 FLOW MODEL IS TRANSIENT


 MAXIMUM STEPSIZE DURING WHICH ANY PARTICLE CANNOT MOVE MORE THAN ONE CELL
 = 0.5616E-02(WHEN MIN. R.F.=1)  AT K=   1, I=   1, J= 119

 MAXIMUM STEPSIZE WHICH MEETS STABILITY CRITERION OF THE ADVECTION TERM
 (FOR PURE FINITE-DIFFERENCE OPTION, MIXELM=0) 
 = 0.3909E-02(WHEN MIN. R.F.=1)  AT K=   2, I=   1, J= 120


 TOTAL NUMBER OF POINT SOURCES/SINKS PRESENT IN THE FLOW MODEL =    40

 MAXIMUM STEPSIZE WHICH MEETS STABILITY CRITERION OF THE SINK & SOURCE TERM
 = 0.1749E-01(WHEN MIN. R.F.=1)  AT K=  20, I=   1, J= 120

 MAXIMUM STEPSIZE WHICH MEETS STABILITY CRITERION OF THE DISPERSION TERM
 = 0.2500E-01(WHEN MIN. R.F.=1)  AT K=   5, I=   1, J=   1
     2 CALLS TO GCG PACKAGE FOR TRANSPORT TIME STEP  35 IN FLOW TIME STEP   1 STRESS PERIOD   2
     5 TOTAL ITERATIONS
 
 SOLVING FOR HEAD 
 FLOW MODEL IS TRANSIENT


 MAXIMUM STEPSIZE DURING WHICH ANY PARTICLE CANNOT MOVE MORE THAN ONE CELL
 = 0.5631E-02(WHEN MIN. R.F.=1)  AT K=   1, I=   1, J= 119

 MAXIMUM STEPSIZE WHICH MEETS STABILITY CRITERION OF THE ADVECTION TERM
 (FOR PURE FINITE-DIFFERENCE OPTION, MIXELM=0) 
 = 0.3926E-02(WHEN MIN. R.F.=1)  AT K=   2, I=   1, J= 120


 TOTAL NUMBER OF POINT SOURCES/SINKS PRESENT IN THE FLOW MODEL =    40

 MAXIMUM STEPSIZE WHICH MEETS STABILITY CRITERION OF THE SINK & SOURCE TERM
 = 0.1764E-01(WHEN MIN. R.F.=1)  AT K=  20, I=   1, J= 120

 MAXIMUM STEPSIZE WHICH MEETS STABILITY CRITERION OF THE DISPERSION TERM
 = 0.2500E-01(WHEN MIN. R.F.=1)  AT K=   5, I=   1, J=   1
     2 CALLS TO GCG PACKAGE FOR TRANSPORT TIME STEP  36 IN FLOW TIME STEP   1 STRESS PERIOD   2
     5 TOTAL ITERATIONS
 
 SOLVING FOR HEAD 
 FLOW MODEL IS TRANSIENT


 MAXIMUM STEPSIZE DURING WHICH ANY PARTICLE CANNOT MOVE MORE THAN ONE CELL
 = 0.5646E-02(WHEN MIN. R.F.=1)  AT K=   1, I=   1, J= 119

 MAXIMUM STEPSIZE WHICH MEETS STABILITY CRITERION OF THE ADVECTION TERM
 (FOR PURE FINITE-DIFFERENCE OPTION, MIXELM=0) 
 = 0.3942E-02(WHEN MIN. R.F.=1)  AT K=   2, I=   1, J= 120


 TOTAL NUMBER OF POINT SOURCES/SINKS PRESENT IN THE FLOW MODEL =    40

 MAXIMUM STEPSIZE WHICH MEETS STABILITY CRITERION OF THE SINK & SOURCE TERM
 = 0.1780E-01(WHEN MIN. R.F.=1)  AT K=  20, I=   1, J= 120

 MAXIMUM STEPSIZE WHICH MEETS STABILITY CRITERION OF THE DISPERSION TERM
 = 0.2500E-01(WHEN MIN. R.F.=1)  AT K=   5, I=   1, J=   1
     2 CALLS TO GCG PACKAGE FOR TRANSPORT TIME STEP  37 IN FLOW TIME STEP   1 STRESS PERIOD   2
     5 TOTAL ITERATIONS
 
 SOLVING FOR HEAD 
 FLOW MODEL IS TRANSIENT


 MAXIMUM STEPSIZE DURING WHICH ANY PARTICLE CANNOT MOVE MORE THAN ONE CELL
 = 0.5661E-02(WHEN MIN. R.F.=1)  AT K=   1, I=   1, J= 119

 MAXIMUM STEPSIZE WHICH MEETS STABILITY CRITERION OF THE ADVECTION TERM
 (FOR PURE FINITE-DIFFERENCE OPTION, MIXELM=0) 
 = 0.3958E-02(WHEN MIN. R.F.=1)  AT K=   2, I=   1, J= 120


 TOTAL NUMBER OF POINT SOURCES/SINKS PRESENT IN THE FLOW MODEL =    40

 MAXIMUM STEPSIZE WHICH MEETS STABILITY CRITERION OF THE SINK & SOURCE TERM
 = 0.1795E-01(WHEN MIN. R.F.=1)  AT K=  20, I=   1, J= 120

 MAXIMUM STEPSIZE WHICH MEETS STABILITY CRITERION OF THE DISPERSION TERM
 = 0.2500E-01(WHEN MIN. R.F.=1)  AT K=   5, I=   1, J=   1
     2 CALLS TO GCG PACKAGE FOR TRANSPORT TIME STEP  38 IN FLOW TIME STEP   1 STRESS PERIOD   2
     5 TOTAL ITERATIONS
 
 SOLVING FOR HEAD 
 FLOW MODEL IS TRANSIENT


 MAXIMUM STEPSIZE DURING WHICH ANY PARTICLE CANNOT MOVE MORE THAN ONE CELL
 = 0.5677E-02(WHEN MIN. R.F.=1)  AT K=   1, I=   1, J= 119

 MAXIMUM STEPSIZE WHICH MEETS STABILITY CRITERION OF THE ADVECTION TERM
 (FOR PURE FINITE-DIFFERENCE OPTION, MIXELM=0) 
 = 0.3974E-02(WHEN MIN. R.F.=1)  AT K=   2, I=   1, J= 120


 TOTAL NUMBER OF POINT SOURCES/SINKS PRESENT IN THE FLOW MODEL =    40

 MAXIMUM STEPSIZE WHICH MEETS STABILITY CRITERION OF THE SINK & SOURCE TERM
 = 0.1810E-01(WHEN MIN. R.F.=1)  AT K=  20, I=   1, J= 120

 MAXIMUM STEPSIZE WHICH MEETS STABILITY CRITERION OF THE DISPERSION TERM
 = 0.2500E-01(WHEN MIN. R.F.=1)  AT K=   5, I=   1, J=   1
     2 CALLS TO GCG PACKAGE FOR TRANSPORT TIME STEP  39 IN FLOW TIME STEP   1 STRESS PERIOD   2
     5 TOTAL ITERATIONS
 
 SOLVING FOR HEAD 
 FLOW MODEL IS TRANSIENT


 MAXIMUM STEPSIZE DURING WHICH ANY PARTICLE CANNOT MOVE MORE THAN ONE CELL
 = 0.5692E-02(WHEN MIN. R.F.=1)  AT K=   1, I=   1, J= 119

 MAXIMUM STEPSIZE WHICH MEETS STABILITY CRITERION OF THE ADVECTION TERM
 (FOR PURE FINITE-DIFFERENCE OPTION, MIXELM=0) 
 = 0.3989E-02(WHEN MIN. R.F.=1)  AT K=   2, I=   1, J= 120


 TOTAL NUMBER OF POINT SOURCES/SINKS PRESENT IN THE FLOW MODEL =    40

 MAXIMUM STEPSIZE WHICH MEETS STABILITY CRITERION OF THE SINK & SOURCE TERM
 = 0.1825E-01(WHEN MIN. R.F.=1)  AT K=  20, I=   1, J= 120

 MAXIMUM STEPSIZE WHICH MEETS STABILITY CRITERION OF THE DISPERSION TERM
 = 0.2500E-01(WHEN MIN. R.F.=1)  AT K=   5, I=   1, J=   1
     2 CALLS TO GCG PACKAGE FOR TRANSPORT TIME STEP  40 IN FLOW TIME STEP   1 STRESS PERIOD   2
     5 TOTAL ITERATIONS
 
 SOLVING FOR HEAD 
 FLOW MODEL IS TRANSIENT


 MAXIMUM STEPSIZE DURING WHICH ANY PARTICLE CANNOT MOVE MORE THAN ONE CELL
 = 0.5707E-02(WHEN MIN. R.F.=1)  AT K=   1, I=   1, J= 119

 MAXIMUM STEPSIZE WHICH MEETS STABILITY CRITERION OF THE ADVECTION TERM
 (FOR PURE FINITE-DIFFERENCE OPTION, MIXELM=0) 
 = 0.4005E-02(WHEN MIN. R.F.=1)  AT K=   2, I=   1, J= 120


 TOTAL NUMBER OF POINT SOURCES/SINKS PRESENT IN THE FLOW MODEL =    40

 MAXIMUM STEPSIZE WHICH MEETS STABILITY CRITERION OF THE SINK & SOURCE TERM
 = 0.1840E-01(WHEN MIN. R.F.=1)  AT K=  20, I=   1, J= 120

 MAXIMUM STEPSIZE WHICH MEETS STABILITY CRITERION OF THE DISPERSION TERM
 = 0.2500E-01(WHEN MIN. R.F.=1)  AT K=   5, I=   1, J=   1
     2 CALLS TO GCG PACKAGE FOR TRANSPORT TIME STEP  41 IN FLOW TIME STEP   1 STRESS PERIOD   2
     5 TOTAL ITERATIONS
 
 SOLVING FOR HEAD 
 FLOW MODEL IS TRANSIENT


 MAXIMUM STEPSIZE DURING WHICH ANY PARTICLE CANNOT MOVE MORE THAN ONE CELL
 = 0.5722E-02(WHEN MIN. R.F.=1)  AT K=   1, I=   1, J= 119

 MAXIMUM STEPSIZE WHICH MEETS STABILITY CRITERION OF THE ADVECTION TERM
 (FOR PURE FINITE-DIFFERENCE OPTION, MIXELM=0) 
 = 0.4021E-02(WHEN MIN. R.F.=1)  AT K=   2, I=   1, J= 120


 TOTAL NUMBER OF POINT SOURCES/SINKS PRESENT IN THE FLOW MODEL =    40

 MAXIMUM STEPSIZE WHICH MEETS STABILITY CRITERION OF THE SINK & SOURCE TERM
 = 0.1855E-01(WHEN MIN. R.F.=1)  AT K=  20, I=   1, J= 120

 MAXIMUM STEPSIZE WHICH MEETS STABILITY CRITERION OF THE DISPERSION TERM
 = 0.2500E-01(WHEN MIN. R.F.=1)  AT K=   5, I=   1, J=   1
     2 CALLS TO GCG PACKAGE FOR TRANSPORT TIME STEP  42 IN FLOW TIME STEP   1 STRESS PERIOD   2
     5 TOTAL ITERATIONS
 
 SOLVING FOR HEAD 
 FLOW MODEL IS TRANSIENT


 MAXIMUM STEPSIZE DURING WHICH ANY PARTICLE CANNOT MOVE MORE THAN ONE CELL
 = 0.5737E-02(WHEN MIN. R.F.=1)  AT K=   1, I=   1, J= 119

 MAXIMUM STEPSIZE WHICH MEETS STABILITY CRITERION OF THE ADVECTION TERM
 (FOR PURE FINITE-DIFFERENCE OPTION, MIXELM=0) 
 = 0.4037E-02(WHEN MIN. R.F.=1)  AT K=   2, I=   1, J= 120


 TOTAL NUMBER OF POINT SOURCES/SINKS PRESENT IN THE FLOW MODEL =    40

 MAXIMUM STEPSIZE WHICH MEETS STABILITY CRITERION OF THE SINK & SOURCE TERM
 = 0.1870E-01(WHEN MIN. R.F.=1)  AT K=  20, I=   1, J= 120

 MAXIMUM STEPSIZE WHICH MEETS STABILITY CRITERION OF THE DISPERSION TERM
 = 0.2500E-01(WHEN MIN. R.F.=1)  AT K=   5, I=   1, J=   1
     2 CALLS TO GCG PACKAGE FOR TRANSPORT TIME STEP  43 IN FLOW TIME STEP   1 STRESS PERIOD   2
     5 TOTAL ITERATIONS
 
 SOLVING FOR HEAD 
 FLOW MODEL IS TRANSIENT


 MAXIMUM STEPSIZE DURING WHICH ANY PARTICLE CANNOT MOVE MORE THAN ONE CELL
 = 0.5752E-02(WHEN MIN. R.F.=1)  AT K=   1, I=   1, J= 119

 MAXIMUM STEPSIZE WHICH MEETS STABILITY CRITERION OF THE ADVECTION TERM
 (FOR PURE FINITE-DIFFERENCE OPTION, MIXELM=0) 
 = 0.4052E-02(WHEN MIN. R.F.=1)  AT K=   2, I=   1, J= 120


 TOTAL NUMBER OF POINT SOURCES/SINKS PRESENT IN THE FLOW MODEL =    40

 MAXIMUM STEPSIZE WHICH MEETS STABILITY CRITERION OF THE SINK & SOURCE TERM
 = 0.1885E-01(WHEN MIN. R.F.=1)  AT K=  20, I=   1, J= 120

 MAXIMUM STEPSIZE WHICH MEETS STABILITY CRITERION OF THE DISPERSION TERM
 = 0.2500E-01(WHEN MIN. R.F.=1)  AT K=   5, I=   1, J=   1
     2 CALLS TO GCG PACKAGE FOR TRANSPORT TIME STEP  44 IN FLOW TIME STEP   1 STRESS PERIOD   2
     5 TOTAL ITERATIONS
 
 SOLVING FOR HEAD 
 FLOW MODEL IS TRANSIENT


 MAXIMUM STEPSIZE DURING WHICH ANY PARTICLE CANNOT MOVE MORE THAN ONE CELL
 = 0.5766E-02(WHEN MIN. R.F.=1)  AT K=   1, I=   1, J= 119

 MAXIMUM STEPSIZE WHICH MEETS STABILITY CRITERION OF THE ADVECTION TERM
 (FOR PURE FINITE-DIFFERENCE OPTION, MIXELM=0) 
 = 0.4068E-02(WHEN MIN. R.F.=1)  AT K=   2, I=   1, J= 120


 TOTAL NUMBER OF POINT SOURCES/SINKS PRESENT IN THE FLOW MODEL =    40

 MAXIMUM STEPSIZE WHICH MEETS STABILITY CRITERION OF THE SINK & SOURCE TERM
 = 0.1899E-01(WHEN MIN. R.F.=1)  AT K=  20, I=   1, J= 120

 MAXIMUM STEPSIZE WHICH MEETS STABILITY CRITERION OF THE DISPERSION TERM
 = 0.2500E-01(WHEN MIN. R.F.=1)  AT K=   5, I=   1, J=   1
     2 CALLS TO GCG PACKAGE FOR TRANSPORT TIME STEP  45 IN FLOW TIME STEP   1 STRESS PERIOD   2
     5 TOTAL ITERATIONS
 
 SOLVING FOR HEAD 
 FLOW MODEL IS TRANSIENT


 MAXIMUM STEPSIZE DURING WHICH ANY PARTICLE CANNOT MOVE MORE THAN ONE CELL
 = 0.5781E-02(WHEN MIN. R.F.=1)  AT K=   1, I=   1, J= 119

 MAXIMUM STEPSIZE WHICH MEETS STABILITY CRITERION OF THE ADVECTION TERM
 (FOR PURE FINITE-DIFFERENCE OPTION, MIXELM=0) 
 = 0.4083E-02(WHEN MIN. R.F.=1)  AT K=   2, I=   1, J= 120


 TOTAL NUMBER OF POINT SOURCES/SINKS PRESENT IN THE FLOW MODEL =    40

 MAXIMUM STEPSIZE WHICH MEETS STABILITY CRITERION OF THE SINK & SOURCE TERM
 = 0.1914E-01(WHEN MIN. R.F.=1)  AT K=  20, I=   1, J= 120

 MAXIMUM STEPSIZE WHICH MEETS STABILITY CRITERION OF THE DISPERSION TERM
 = 0.2500E-01(WHEN MIN. R.F.=1)  AT K=   5, I=   1, J=   1
     2 CALLS TO GCG PACKAGE FOR TRANSPORT TIME STEP  46 IN FLOW TIME STEP   1 STRESS PERIOD   2
     5 TOTAL ITERATIONS
 
 SOLVING FOR HEAD 
 FLOW MODEL IS TRANSIENT


 MAXIMUM STEPSIZE DURING WHICH ANY PARTICLE CANNOT MOVE MORE THAN ONE CELL
 = 0.5796E-02(WHEN MIN. R.F.=1)  AT K=   1, I=   1, J= 119

 MAXIMUM STEPSIZE WHICH MEETS STABILITY CRITERION OF THE ADVECTION TERM
 (FOR PURE FINITE-DIFFERENCE OPTION, MIXELM=0) 
 = 0.4098E-02(WHEN MIN. R.F.=1)  AT K=   2, I=   1, J= 120


 TOTAL NUMBER OF POINT SOURCES/SINKS PRESENT IN THE FLOW MODEL =    40

 MAXIMUM STEPSIZE WHICH MEETS STABILITY CRITERION OF THE SINK & SOURCE TERM
 = 0.1929E-01(WHEN MIN. R.F.=1)  AT K=  20, I=   1, J= 120

 MAXIMUM STEPSIZE WHICH MEETS STABILITY CRITERION OF THE DISPERSION TERM
 = 0.2500E-01(WHEN MIN. R.F.=1)  AT K=   5, I=   1, J=   1
     2 CALLS TO GCG PACKAGE FOR TRANSPORT TIME STEP  47 IN FLOW TIME STEP   1 STRESS PERIOD   2
     5 TOTAL ITERATIONS
 
 SOLVING FOR HEAD 
 FLOW MODEL IS TRANSIENT


 MAXIMUM STEPSIZE DURING WHICH ANY PARTICLE CANNOT MOVE MORE THAN ONE CELL
 = 0.5811E-02(WHEN MIN. R.F.=1)  AT K=   1, I=   1, J= 119

 MAXIMUM STEPSIZE WHICH MEETS STABILITY CRITERION OF THE ADVECTION TERM
 (FOR PURE FINITE-DIFFERENCE OPTION, MIXELM=0) 
 = 0.4114E-02(WHEN MIN. R.F.=1)  AT K=   2, I=   1, J= 120


 TOTAL NUMBER OF POINT SOURCES/SINKS PRESENT IN THE FLOW MODEL =    40

 MAXIMUM STEPSIZE WHICH MEETS STABILITY CRITERION OF THE SINK & SOURCE TERM
 = 0.1943E-01(WHEN MIN. R.F.=1)  AT K=  20, I=   1, J= 120

 MAXIMUM STEPSIZE WHICH MEETS STABILITY CRITERION OF THE DISPERSION TERM
 = 0.2500E-01(WHEN MIN. R.F.=1)  AT K=   5, I=   1, J=   1
     2 CALLS TO GCG PACKAGE FOR TRANSPORT TIME STEP  48 IN FLOW TIME STEP   1 STRESS PERIOD   2
     5 TOTAL ITERATIONS
 
 SOLVING FOR HEAD 
 FLOW MODEL IS TRANSIENT


 MAXIMUM STEPSIZE DURING WHICH ANY PARTICLE CANNOT MOVE MORE THAN ONE CELL
 = 0.5825E-02(WHEN MIN. R.F.=1)  AT K=   1, I=   1, J= 119

 MAXIMUM STEPSIZE WHICH MEETS STABILITY CRITERION OF THE ADVECTION TERM
 (FOR PURE FINITE-DIFFERENCE OPTION, MIXELM=0) 
 = 0.4129E-02(WHEN MIN. R.F.=1)  AT K=   2, I=   1, J= 120


 TOTAL NUMBER OF POINT SOURCES/SINKS PRESENT IN THE FLOW MODEL =    40

 MAXIMUM STEPSIZE WHICH MEETS STABILITY CRITERION OF THE SINK & SOURCE TERM
 = 0.1958E-01(WHEN MIN. R.F.=1)  AT K=  20, I=   1, J= 120

 MAXIMUM STEPSIZE WHICH MEETS STABILITY CRITERION OF THE DISPERSION TERM
 = 0.2500E-01(WHEN MIN. R.F.=1)  AT K=   5, I=   1, J=   1
     2 CALLS TO GCG PACKAGE FOR TRANSPORT TIME STEP  49 IN FLOW TIME STEP   1 STRESS PERIOD   2
     5 TOTAL ITERATIONS
 
 SOLVING FOR HEAD 
 FLOW MODEL IS TRANSIENT


 MAXIMUM STEPSIZE DURING WHICH ANY PARTICLE CANNOT MOVE MORE THAN ONE CELL
 = 0.5840E-02(WHEN MIN. R.F.=1)  AT K=   1, I=   1, J= 119

 MAXIMUM STEPSIZE WHICH MEETS STABILITY CRITERION OF THE ADVECTION TERM
 (FOR PURE FINITE-DIFFERENCE OPTION, MIXELM=0) 
 = 0.4144E-02(WHEN MIN. R.F.=1)  AT K=   2, I=   1, J= 120


 TOTAL NUMBER OF POINT SOURCES/SINKS PRESENT IN THE FLOW MODEL =    40

 MAXIMUM STEPSIZE WHICH MEETS STABILITY CRITERION OF THE SINK & SOURCE TERM
 = 0.1972E-01(WHEN MIN. R.F.=1)  AT K=  20, I=   1, J= 120

 MAXIMUM STEPSIZE WHICH MEETS STABILITY CRITERION OF THE DISPERSION TERM
 = 0.2500E-01(WHEN MIN. R.F.=1)  AT K=   5, I=   1, J=   1
     2 CALLS TO GCG PACKAGE FOR TRANSPORT TIME STEP  50 IN FLOW TIME STEP   1 STRESS PERIOD   2
     5 TOTAL ITERATIONS
 
 SOLVING FOR HEAD 
 FLOW MODEL IS TRANSIENT


 MAXIMUM STEPSIZE DURING WHICH ANY PARTICLE CANNOT MOVE MORE THAN ONE CELL
 = 0.5855E-02(WHEN MIN. R.F.=1)  AT K=   1, I=   1, J= 119

 MAXIMUM STEPSIZE WHICH MEETS STABILITY CRITERION OF THE ADVECTION TERM
 (FOR PURE FINITE-DIFFERENCE OPTION, MIXELM=0) 
 = 0.4159E-02(WHEN MIN. R.F.=1)  AT K=   2, I=   1, J= 120


 TOTAL NUMBER OF POINT SOURCES/SINKS PRESENT IN THE FLOW MODEL =    40

 MAXIMUM STEPSIZE WHICH MEETS STABILITY CRITERION OF THE SINK & SOURCE TERM
 = 0.1986E-01(WHEN MIN. R.F.=1)  AT K=  20, I=   1, J= 120

 MAXIMUM STEPSIZE WHICH MEETS STABILITY CRITERION OF THE DISPERSION TERM
 = 0.2500E-01(WHEN MIN. R.F.=1)  AT K=   5, I=   1, J=   1
     2 CALLS TO GCG PACKAGE FOR TRANSPORT TIME STEP  51 IN FLOW TIME STEP   1 STRESS PERIOD   2
     5 TOTAL ITERATIONS
 
 SOLVING FOR HEAD 
 FLOW MODEL IS TRANSIENT


 MAXIMUM STEPSIZE DURING WHICH ANY PARTICLE CANNOT MOVE MORE THAN ONE CELL
 = 0.5869E-02(WHEN MIN. R.F.=1)  AT K=   1, I=   1, J= 119

 MAXIMUM STEPSIZE WHICH MEETS STABILITY CRITERION OF THE ADVECTION TERM
 (FOR PURE FINITE-DIFFERENCE OPTION, MIXELM=0) 
 = 0.4174E-02(WHEN MIN. R.F.=1)  AT K=   2, I=   1, J= 120


 TOTAL NUMBER OF POINT SOURCES/SINKS PRESENT IN THE FLOW MODEL =    40

 MAXIMUM STEPSIZE WHICH MEETS STABILITY CRITERION OF THE SINK & SOURCE TERM
 = 0.2001E-01(WHEN MIN. R.F.=1)  AT K=  20, I=   1, J= 120

 MAXIMUM STEPSIZE WHICH MEETS STABILITY CRITERION OF THE DISPERSION TERM
 = 0.2500E-01(WHEN MIN. R.F.=1)  AT K=   5, I=   1, J=   1
     2 CALLS TO GCG PACKAGE FOR TRANSPORT TIME STEP  52 IN FLOW TIME STEP   1 STRESS PERIOD   2
     5 TOTAL ITERATIONS
 
 SOLVING FOR HEAD 
