                                  MODFLOW-2005     
      U.S. GEOLOGICAL SURVEY MODULAR FINITE-DIFFERENCE GROUND-WATER FLOW MODEL
                            VERSION 1.11.00 8/8/2013

 LIST FILE: supply2.lst
                         UNIT   10

 OPENING supply2.dis
 FILE TYPE:DIS   UNIT   11   STATUS:OLD    
 FORMAT:FORMATTED              ACCESS:SEQUENTIAL          

 OPENING supply2.ba6
 FILE TYPE:BAS6   UNIT   12   STATUS:OLD    
 FORMAT:FORMATTED              ACCESS:SEQUENTIAL          

 OPENING supply2.bc6
 FILE TYPE:BCF6   UNIT   13   STATUS:OLD    
 FORMAT:FORMATTED              ACCESS:SEQUENTIAL          

 OPENING supply2.rch
 FILE TYPE:RCH   UNIT   15   STATUS:OLD    
 FORMAT:FORMATTED              ACCESS:SEQUENTIAL          
#STR     16  supply2.str                                                                                                                                                                                                                                                                                    

 OPENING supply2.sfr
 FILE TYPE:SFR   UNIT   16   STATUS:OLD    
 FORMAT:FORMATTED              ACCESS:SEQUENTIAL          

 OPENING supply2.oc
 FILE TYPE:OC   UNIT   17   STATUS:OLD    
 FORMAT:FORMATTED              ACCESS:SEQUENTIAL          

 OPENING supply2.pcg
 FILE TYPE:PCG   UNIT   18   STATUS:OLD    
 FORMAT:FORMATTED              ACCESS:SEQUENTIAL          

 OPENING supply2.wel
 FILE TYPE:WEL   UNIT   20   STATUS:OLD    
 FORMAT:FORMATTED              ACCESS:SEQUENTIAL          
#GWM     19   supply2.gwm                                                                                                                                                                                                                                                                                   
#DATA    20   supply2.gwmwell                                                                                                                                                                                                                                                                               

 OPENING supply2.sfrout
 FILE TYPE:DATA   UNIT   81   STATUS:UNKNOWN
 FORMAT:FORMATTED              ACCESS:SEQUENTIAL          

 OPENING supply2.hds
 FILE TYPE:DATA   UNIT   51   STATUS:UNKNOWN
 FORMAT:FORMATTED              ACCESS:SEQUENTIAL          

 BAS -- BASIC PACKAGE, VERSION 7, 5/2/2005 INPUT READ FROM UNIT   12
 
 MODFLOW was compiled using mixed precision
 Precision of REAL variables:           6
 Precision of DOUBLE PRECISION variables:          15

 DISCRETIZATION INPUT DATA READ FROM UNIT   11
    1 LAYERS        25 ROWS        30 COLUMNS
   12 STRESS PERIOD(S) IN SIMULATION
 MODEL TIME UNIT IS DAYS
 MODEL LENGTH UNIT IS UNDEFINED
  Confining bed flag for each layer:
   0

                     DELR =   200.000    

                     DELC =   200.000    

 TOP ELEVATION OF LAYER 1 =  100.0000    

   MODEL LAYER BOTTOM EL. =   0.00000     FOR LAYER   1


 STRESS PERIOD     LENGTH       TIME STEPS     MULTIPLIER FOR DELT    SS FLAG
 ----------------------------------------------------------------------------
        1         92.00000          1                    1.500         TR
        2         91.00000          1                    1.500         TR
        3         91.00000          1                    1.500         TR
        4         91.00000          1                    1.500         TR
        5         92.00000          1                    1.500         TR
        6         91.00000          1                    1.500         TR
        7         91.00000          1                    1.500         TR
        8         91.00000          1                    1.500         TR
        9         92.00000          1                    1.500         TR
       10         91.00000          1                    1.500         TR
       11         91.00000          1                    1.500         TR
       12         91.00000          1                    1.500         TR

 TRANSIENT SIMULATION



 
 #MODOFC transient water supply sample problem                                   
 #                                                                               
 THE FREE FORMAT OPTION HAS BEEN SELECTED



                     BOUNDARY ARRAY FOR LAYER   1
 READING ON UNIT   12 WITH FORMAT: (20I4)              

 AQUIFER HEAD WILL BE SET TO   0.0000     AT ALL NO-FLOW NODES (IBOUND=0).



                       INITIAL HEAD FOR LAYER   1
 READING ON UNIT   12 WITH FORMAT: (10F13.0)           
 # Output control package file for MODFLOW, generated by Flopy.

 OUTPUT CONTROL IS SPECIFIED ONLY AT TIME STEPS FOR WHICH OUTPUT IS DESIRED
 HEADS WILL BE SAVED WITH FORMAT: (30E15.6)           
 SAVED HEADS WILL BE LABELED
 COMPACT CELL-BY-CELL BUDGET FILES WILL BE WRITTEN
 AUXILIARY DATA WILL BE SAVED IN CELL-BY-CELL BUDGET FILES
 HEAD PRINT FORMAT CODE IS   0    DRAWDOWN PRINT FORMAT CODE IS   0
 HEADS WILL BE SAVED ON UNIT   51    DRAWDOWNS WILL BE SAVED ON UNIT   52

 BCF -- BLOCK-CENTERED FLOW PACKAGE, VERSION 7, 5/2/2005
         INPUT READ FROM UNIT 13
 TRANSIENT SIMULATION
 HEAD AT CELLS THAT CONVERT TO DRY=   0.0000    
 WETTING CAPABILITY IS NOT ACTIVE
      LAYER  LAYER-TYPE CODE     INTERBLOCK T
      --------------------------------------------
         1            0          0 -- HARMONIC    

 COLUMN TO ROW ANISOTROPY =  1.000000    

     PRIMARY STORAGE COEF =  5.000000E-02 FOR LAYER   1

 OPENING FILE ON UNIT   99:
 tran.ref                                                                                                                                                                                                



               TRANSMIS. ALONG ROWS FOR LAYER   1
 READING ON UNIT   99 WITH FORMAT: (FREE)              

            1           2           3           4           5           6           7           8           9          10
           11          12          13          14          15          16          17          18          19          20
           21          22          23          24          25          26          27          28          29          30
 ........................................................................................................................
   1    5000.       5000.       5000.       5000.       5000.       5000.       5000.       5000.       5000.       5000.    
        5000.       5000.       5000.       5000.       5000.       5000.       5000.       5000.       5000.       5000.    
        5000.       5000.       5000.       5000.       5000.       5000.       5000.       5000.       5000.       5000.    
   2    5000.       5000.       5000.       5000.       5000.       5000.       5000.       5000.       5000.       5000.    
        5000.       5000.       5000.       5000.       5000.       5000.       5000.       5000.       5000.       5000.    
        5000.       5000.       5000.       5000.       5000.       5000.       5000.       5000.       5000.       5000.    
   3    5000.       5000.       5000.       5000.       5000.       5000.       5000.       5000.       5000.       5000.    
        5000.       5000.       5000.       5000.       5000.       5000.       5000.       5000.       5000.       5000.    
        5000.       5000.       5000.       5000.       5000.       5000.       5000.       5000.       5000.       5000.    
   4    5000.       5000.       5000.       5000.       5000.       5000.       5000.       5000.       5000.       5000.    
        5000.       5000.       5000.       5000.       5000.       5000.       5000.       5000.       5000.       5000.    
        5000.       5000.       5000.       5000.       5000.       5000.       5000.       5000.       5000.       5000.    
   5    5000.       5000.       5000.       5000.       5000.       5000.       5000.       5000.       5000.       5000.    
        5000.       5000.       5000.       5000.       5000.       5000.       5000.       5000.       5000.       5000.    
        5000.       5000.       5000.       5000.       5000.       5000.       5000.       5000.       5000.       5000.    
   6    5000.       5000.       5000.       5000.       5000.       5000.       5000.       5000.       5000.       5000.    
        5000.       5000.       5000.       5000.       5000.       5000.       5000.       5000.       5000.       5000.    
        5000.       5000.       5000.       5000.       5000.       5000.       5000.       5000.       5000.       5000.    
   7    5000.       5000.       5000.       5000.       5000.       5000.       5000.       5000.       5000.       5000.    
        5000.       5000.       5000.       5000.       5000.       5000.       5000.       5000.       5000.       5000.    
        5000.       5000.       5000.       5000.       5000.       5000.       5000.       5000.       5000.       5000.    
   8    5000.       5000.       5000.       5000.       5000.       5000.       5000.       5000.       5000.       5000.    
        5000.       5000.       5000.       5000.       5000.       5000.       5000.       5000.       5000.       5000.    
        5000.       5000.       5000.       5000.       5000.       5000.       5000.       5000.       5000.       5000.    
   9    5000.       5000.       5000.       5000.       5000.       5000.       5000.       5000.       5000.       5000.    
        5000.       5000.       5000.       5000.       5000.       5000.       5000.       5000.       5000.       5000.    
        5000.       5000.       5000.       5000.       5000.       5000.       5000.       5000.       5000.       5000.    
  10    5000.       5000.       5000.       5000.       5000.       5000.       5000.       5000.       5000.       5000.    
        5000.       5000.       5000.       5000.       5000.       5000.       5000.       5000.       5000.       5000.    
        5000.       5000.       5000.       5000.       5000.       5000.       5000.       5000.       5000.       5000.    
  11    5000.       5000.       5000.       5000.       5000.       5000.       5000.       5000.       5000.       5000.    
        5000.       5000.       5000.       5000.       5000.       5000.       5000.       5000.       5000.       5000.    
        5000.       5000.       5000.       5000.       5000.       5000.       5000.       5000.       5000.       5000.    
  12    5000.       5000.       5000.       5000.       5000.       5000.       5000.       5000.       5000.       5000.    
        5000.       5000.       5000.       5000.       5000.       5000.       5000.       5000.       5000.       5000.    
        5000.       5000.       5000.       5000.       5000.       5000.       5000.       5000.       5000.       5000.    
  13    5000.       5000.       5000.       5000.       5000.       5000.       5000.       5000.       5000.       5000.    
        5000.       5000.       5000.       5000.       5000.       5000.       5000.       5000.       5000.       5000.    
        5000.       5000.       5000.       5000.       5000.       5000.       5000.       5000.       5000.       5000.    
  14    5000.       5000.       5000.       5000.       5000.       5000.       5000.       5000.       5000.       5000.    
        5000.       5000.       5000.       5000.       5000.       5000.       5000.       5000.       5000.       5000.    
        5000.       5000.       5000.       5000.       5000.       5000.       5000.       5000.       5000.       5000.    
  15    5000.       5000.       5000.       5000.       5000.       5000.       5000.       5000.       5000.       5000.    
        5000.       5000.       5000.       5000.       5000.       5000.       5000.       5000.       5000.       5000.    
        5000.       5000.       5000.       5000.       5000.       5000.       5000.       5000.       5000.       5000.    
  16    5000.       5000.       5000.       5000.       5000.       5000.       5000.       5000.       5000.       5000.    
        5000.       5000.       5000.       5000.       5000.       5000.       5000.       5000.       5000.       5000.    
        5000.       5000.       5000.       5000.       5000.       5000.       5000.       5000.       5000.       5000.    
  17    5000.       5000.       5000.       5000.       5000.       5000.       5000.       5000.       5000.       5000.    
        5000.       5000.       5000.       5000.       5000.       5000.       5000.       5000.       5000.       5000.    
        5000.       5000.       5000.       5000.       5000.       5000.       5000.       5000.       5000.       5000.    
  18    5000.       5000.       5000.       5000.       5000.       5000.       5000.       5000.       5000.       5000.    
        5000.       5000.       5000.       5000.       5000.       5000.       5000.       5000.       5000.       5000.    
        5000.       5000.       5000.       5000.       5000.       5000.       5000.       5000.       5000.       5000.    
  19    5000.       5000.       5000.       5000.       5000.       5000.       5000.       5000.       5000.       5000.    
        5000.       5000.       5000.       5000.       5000.       5000.       5000.       5000.       5000.       5000.    
        5000.       5000.       5000.       5000.       5000.       5000.       5000.       5000.       5000.       5000.    
  20    5000.       5000.       5000.       5000.       5000.       5000.       5000.       5000.       5000.       5000.    
        5000.       5000.       5000.       5000.       5000.       5000.       5000.       5000.       5000.       5000.    
        5000.       5000.       5000.       5000.       5000.       5000.       5000.       5000.       5000.       5000.    
  21    5000.       5000.       5000.       5000.       5000.       5000.       5000.       5000.       5000.       5000.    
        5000.       5000.       5000.       5000.       5000.       5000.       5000.       5000.       5000.       5000.    
        5000.       5000.       5000.       5000.       5000.       5000.       5000.       5000.       5000.       5000.    
  22    5000.       5000.       5000.       5000.       5000.       5000.       5000.       5000.       5000.       5000.    
        5000.       5000.       5000.       5000.       5000.       5000.       5000.       5000.       5000.       5000.    
        5000.       5000.       5000.       5000.       5000.       5000.       5000.       5000.       5000.       5000.    
  23    5000.       5000.       5000.       5000.       5000.       5000.       5000.       5000.       5000.       5000.    
        5000.       5000.       5000.       5000.       5000.       5000.       5000.       5000.       5000.       5000.    
        5000.       5000.       5000.       5000.       5000.       5000.       5000.       5000.       5000.       5000.    
  24    5000.       5000.       5000.       5000.       5000.       5000.       5000.       5000.       5000.       5000.    
        5000.       5000.       5000.       5000.       5000.       5000.       5000.       5000.       5000.       5000.    
        5000.       5000.       5000.       5000.       5000.       5000.       5000.       5000.       5000.       5000.    
  25    5000.       5000.       5000.       5000.       5000.       5000.       5000.       5000.       5000.       5000.    
        5000.       5000.       5000.       5000.       5000.       5000.       5000.       5000.       5000.       5000.    
        5000.       5000.       5000.       5000.       5000.       5000.       5000.       5000.       5000.       5000.    

 WEL -- WELL PACKAGE, VERSION 7, 5/2/2005 INPUT READ FROM UNIT   20
 # Well file for MODFLOW, generated by Flopy.
 No named parameters
 MAXIMUM OF      4 ACTIVE WELLS AT ONE TIME


     0 Well parameters

 RCH -- RECHARGE PACKAGE, VERSION 7, 5/2/2005 INPUT READ FROM UNIT   15
 No named parameters
 OPTION 1 -- RECHARGE TO TOP LAYER


     0 Recharge parameters

 SFR7 -- STREAMFLOW ROUTING PACKAGE, VERSION 1.0.7, 2013-01-15
         INPUT READ FROM UNIT  16
 #SUPPLY2 Sample Problem, SFR file
 #March 2009
 No named parameters
 Segment information will not be 
 read by reach
 No named parameters
 No specifed inflow files


 NUMBER OF STREAM REACHES IS   40

 NUMBER OF STREAM SEGMENTS IS    3

 NUMBER OF STREAM PARAMETERS IS    0

 NUMBER OF STREAM SEGMENTS DEFINED USING PARAMETERS IS              0

 MAXIMUM ERROR FOR STREAM LEAKAGE RATES IS  1.00E-04

 CONSTANT FOR MANNINGS EQUATION IS  1.2839E+05



 STREAM OUTPUT WILL BE WRITTEN TO FILE ON UNIT   81


   STREAM NETWORK DESCRIPTION: 

   LAYER    ROW    COL   SEGMENT   REACH     LENGTH
                          NUMBER   NUMBER    IN CELL        
   --------------------------------------------------
      1     13      1       1        1    2.0000E+02
      1     13      2       1        2    2.0000E+02
      1     14      3       1        3    2.0000E+02
      1     15      4       1        4    2.0000E+02
      1     16      5       1        5    2.0000E+02
      1     16      6       1        6    2.0000E+02
      1     16      7       1        7    2.0000E+02
      1     16      8       1        8    2.0000E+02
      1     16      9       1        9    2.0000E+02
      1     16     10       1       10    2.0000E+02
      1     16     11       1       11    2.0000E+02
      1     16     12       1       12    2.0000E+02
      1     15     13       1       13    2.0000E+02
      1     14     14       1       14    2.0000E+02
      1     13     15       1       15    2.0000E+02
      1     12     16       1       16    2.0000E+02
      1     12     17       1       17    2.0000E+02
      1     12     18       1       18    2.0000E+02
      1     12     19       1       19    2.0000E+02
      1     13     20       1       20    2.0000E+02
      1     14     21       1       21    2.0000E+02
      1     14     22       1       22    2.0000E+02
      1      9     30       2        1    2.0000E+02
      1      9     29       2        2    2.0000E+02
      1      9     28       2        3    2.0000E+02
      1      9     27       2        4    2.0000E+02
      1     10     26       2        5    2.0000E+02
      1     11     25       2        6    2.0000E+02
      1     12     24       2        7    2.0000E+02
      1     13     23       2        8    2.0000E+02
      1     14     22       2        9    2.0000E+02
      1     14     22       3        1    2.0000E+02
      1     15     23       3        2    2.0000E+02
      1     15     24       3        3    2.0000E+02
      1     15     25       3        4    2.0000E+02
      1     15     26       3        5    2.0000E+02
      1     16     27       3        6    2.0000E+02
      1     17     28       3        7    2.0000E+02
      1     18     29       3        8    2.0000E+02
      1     18     30       3        9    2.0000E+02




 PCG -- CONJUGATE-GRADIENT SOLUTION PACKAGE, VERSION 7, 5/2/2005
