                                  MODFLOW-2005     
      U.S. GEOLOGICAL SURVEY MODULAR FINITE-DIFFERENCE GROUND-WATER FLOW MODEL
                            VERSION 1.11.00 8/8/2013

 LIST FILE: dewater_pest.list
                         UNIT    2

 OPENING dewater_pest.dis
 FILE TYPE:DIS   UNIT   11   STATUS:OLD    
 FORMAT:FORMATTED              ACCESS:SEQUENTIAL          

 OPENING dewater_pest.bas
 FILE TYPE:BAS6   UNIT   13   STATUS:OLD    
 FORMAT:FORMATTED              ACCESS:SEQUENTIAL          

 OPENING dewater_pest.bcf
 FILE TYPE:BCF6   UNIT   15   STATUS:OLD    
 FORMAT:FORMATTED              ACCESS:SEQUENTIAL          

 OPENING dewater_pest.pcg
 FILE TYPE:PCG   UNIT   27   STATUS:OLD    
 FORMAT:FORMATTED              ACCESS:SEQUENTIAL          

 OPENING dewater_pest.wel
 FILE TYPE:WEL   UNIT   20   STATUS:OLD    
 FORMAT:FORMATTED              ACCESS:SEQUENTIAL          

 OPENING dewater_pest.oc
 FILE TYPE:OC   UNIT   14   STATUS:OLD    
 FORMAT:FORMATTED              ACCESS:SEQUENTIAL          

 OPENING dewater_pest.hds
 FILE TYPE:DATA   UNIT   51   STATUS:REPLACE
 FORMAT:FORMATTED              ACCESS:SEQUENTIAL          

 OPENING dewater_pest.ddn
 FILE TYPE:DATA(BINARY)   UNIT   52   STATUS:REPLACE
 FORMAT:BINARY                 ACCESS:SEQUENTIAL          

 OPENING dewater_pest.cbc
 FILE TYPE:DATA(BINARY)   UNIT   53   STATUS:REPLACE
 FORMAT:BINARY                 ACCESS:SEQUENTIAL          

 BAS -- BASIC PACKAGE, VERSION 7, 5/2/2005 INPUT READ FROM UNIT   13
 
 MODFLOW was compiled using mixed precision
 Precision of REAL variables:           6
 Precision of DOUBLE PRECISION variables:          15

 DISCRETIZATION INPUT DATA READ FROM UNIT   11
 # Discretization file for MODFLOW, generated by Flopy.
    1 LAYERS        20 ROWS        30 COLUMNS
    1 STRESS PERIOD(S) IN SIMULATION
 MODEL TIME UNIT IS DAYS
 MODEL LENGTH UNIT IS UNDEFINED
  Confining bed flag for each layer:
   0

 OPENING FILE ON UNIT   99:
 ref\delr.ref                                                                                                                                                                                            



                               DELR
 READING ON UNIT   99 WITH FORMAT: (30E15.6)           

 OPENING FILE ON UNIT   99:
 ref\delc.ref                                                                                                                                                                                            



                               DELC
 READING ON UNIT   99 WITH FORMAT: (20E15.6)           

 OPENING FILE ON UNIT   99:
 ref\model_top.ref                                                                                                                                                                                       



           TOP ELEVATION OF LAYER 1
 READING ON UNIT   99 WITH FORMAT: (FREE)              

 OPENING FILE ON UNIT   99:
 ref\botm_layer_1.ref                                                                                                                                                                                    



             MODEL LAYER BOTTOM EL. FOR LAYER   1
 READING ON UNIT   99 WITH FORMAT: (FREE)              


 STRESS PERIOD     LENGTH       TIME STEPS     MULTIPLIER FOR DELT    SS FLAG
 ----------------------------------------------------------------------------
        1        1000.0000          1                    1.000         SS

 STEADY-STATE SIMULATION



 
 # Basic package file for MODFLOW, generated by Flopy.                           
 THE FREE FORMAT OPTION HAS BEEN SELECTED

 OPENING FILE ON UNIT   99:
 ref\ibound_layer_1.ref                                                                                                                                                                                  



                     BOUNDARY ARRAY FOR LAYER   1
 READING ON UNIT   99 WITH FORMAT: (FREE)              

 AQUIFER HEAD WILL BE SET TO   0.0000     AT ALL NO-FLOW NODES (IBOUND=0).

 OPENING FILE ON UNIT   99:
 ref\strt_layer_1.ref                                                                                                                                                                                    



                       INITIAL HEAD FOR LAYER   1
 READING ON UNIT   99 WITH FORMAT: (FREE)              
 # Output control package file for MODFLOW, generated by Flopy.

 OUTPUT CONTROL IS SPECIFIED ONLY AT TIME STEPS FOR WHICH OUTPUT IS DESIRED
 HEADS WILL BE SAVED WITH FORMAT: (30E15.6)           
 SAVED HEADS WILL BE LABELED
 COMPACT CELL-BY-CELL BUDGET FILES WILL BE WRITTEN
 AUXILIARY DATA WILL BE SAVED IN CELL-BY-CELL BUDGET FILES
 HEAD PRINT FORMAT CODE IS   0    DRAWDOWN PRINT FORMAT CODE IS   0
 HEADS WILL BE SAVED ON UNIT   51    DRAWDOWNS WILL BE SAVED ON UNIT   52

 BCF -- BLOCK-CENTERED FLOW PACKAGE, VERSION 7, 5/2/2005
         INPUT READ FROM UNIT 15
 STEADY-STATE SIMULATION
 HEAD AT CELLS THAT CONVERT TO DRY=   0.0000    
 WETTING CAPABILITY IS ACTIVE
 WETTING FACTOR=   1.00000     WETTING ITERATION INTERVAL=   1
 FLAG THAT SPECIFIES THE EQUATION TO USE FOR HEAD AT WETTED CELLS=   0
      LAYER  LAYER-TYPE CODE     INTERBLOCK T
      --------------------------------------------
         1            0          0 -- HARMONIC    

 OPENING FILE ON UNIT   99:
 ref\anisotropy_factor.ref                                                                                                                                                                               



           COLUMN TO ROW ANISOTROPY
 READING ON UNIT   99 WITH FORMAT: (1E15.6)            

 OPENING FILE ON UNIT   99:
 ref\transmissivity_layer_1.ref                                                                                                                                                                          



               TRANSMIS. ALONG ROWS FOR LAYER   1
 READING ON UNIT   99 WITH FORMAT: (FREE)              

 WEL -- WELL PACKAGE, VERSION 7, 5/2/2005 INPUT READ FROM UNIT   20
 # Well file for MODFLOW, generated by Flopy.
 No named parameters
 MAXIMUM OF      7 ACTIVE WELLS AT ONE TIME


     0 Well parameters

 PCG -- CONJUGATE-GRADIENT SOLUTION PACKAGE, VERSION 7, 5/2/2005
 # PCG for MODFLOW, generated by Flopy.
 MAXIMUM OF     50 CALLS OF SOLUTION ROUTINE
 MAXIMUM OF      5 INTERNAL ITERATIONS PER CALL TO SOLUTION ROUTINE
 MATRIX PRECONDITIONING TYPE :    1



                                    SOLUTION BY THE CONJUGATE-GRADIENT METHOD
                                   -------------------------------------------
                    MAXIMUM NUMBER OF CALLS TO PCG ROUTINE =       50
                        MAXIMUM ITERATIONS PER CALL TO PCG =        5
                               MATRIX PRECONDITIONING TYPE =        1
        RELAXATION FACTOR (ONLY USED WITH PRECOND. TYPE 1) =    0.10000E+01
 PARAMETER OF POLYNOMIAL PRECOND. = 2 (2) OR IS CALCULATED :        0
                         HEAD CHANGE CRITERION FOR CLOSURE =    0.10000E-07
                     RESIDUAL CHANGE CRITERION FOR CLOSURE =    0.10000E+01
            PCG HEAD AND RESIDUAL CHANGE PRINTOUT INTERVAL =        1
     PRINTING FROM SOLVER IS LIMITED(1) OR SUPPRESSED (>1) =        0
                            STEADY-STATE DAMPING PARAMETER =    0.10000E+01
                               TRANSIENT DAMPING PARAMETER =    0.10000E+01
1
                            STRESS PERIOD NO.    1, LENGTH =  1000.0000    
                            -----------------------------------------------

                              NUMBER OF TIME STEPS =     1

                               MULTIPLIER FOR DELT =     1.000

                            INITIAL TIME STEP SIZE =  1000.0000    

 OPENING FILE ON UNIT   99:
 ref\WEL_0000.dat                                                                                                                                                                                        

 WELL NO.  LAYER   ROW   COL   STRESS RATE         
 --------------------------------------------------
      1      1      7     14      -234.9    
      2      1      7     16       0.000    
      3      1      8     15      -3015.    
      4      1      9     14       0.000    
      5      1      9     16       0.000    
      6      1     11     17       0.000    
      7      1     13     16      -1265.    

      7 WELLS
 
 SOLVING FOR HEAD 


    10 CALLS TO PCG ROUTINE FOR TIME STEP   1 IN STRESS PERIOD    1
    46 TOTAL ITERATIONS

 MAXIMUM HEAD CHANGE FOR EACH ITERATION (1 INDICATES THE FIRST INNER ITERATION):

    HEAD CHANGE    HEAD CHANGE    HEAD CHANGE    HEAD CHANGE    HEAD CHANGE 
   LAYER,ROW,COL  LAYER,ROW,COL  LAYER,ROW,COL  LAYER,ROW,COL  LAYER,ROW,COL
 ---------------------------------------------------------------------------
  1  -36.83      0  -20.14      0  -6.809      0  -3.779      0   2.449    
   (  1,  8, 15)  (  1,  2, 17)  (  1,  1, 23)  (  1, 20,  9)  (  1,  1, 13)
  1  -1.107      0 -0.6653      0  0.4193      0  0.4155      0  0.1993    
   (  1,  5, 17)  (  1,  3, 23)  (  1,  6, 27)  (  1,  1, 13)  (  1,  6, 13)
  1 -0.1726      0 -0.1094      0 -0.3793E-01  0 -0.1960E-01  0  0.1458E-01
   (  1,  8, 15)  (  1,  5, 20)  (  1,  1, 23)  (  1, 19,  9)  (  1,  1, 13)
  1 -0.7550E-02  0  0.4288E-02  0  0.3403E-02  0  0.2787E-02  0  0.1449E-02
   (  1,  6, 17)  (  1,  2,  9)  (  1,  6,  8)  (  1,  1, 15)  (  1,  4, 12)
  1 -0.1240E-02  0 -0.8489E-03  0  0.2888E-03  0  0.1666E-03  0  0.1105E-03
   (  1,  8, 15)  (  1,  5, 20)  (  1,  2, 17)  (  1,  6,  8)  (  1,  1, 13)
  1 -0.6169E-04  0  0.3405E-04  0  0.2991E-04  0  0.2176E-04  0  0.1107E-04
   (  1,  6, 17)  (  1,  1, 15)  (  1,  7,  9)  (  1,  1, 16)  (  1,  4, 12)
  1 -0.9337E-05  0 -0.6754E-05  0 -0.2587E-05  0  0.1476E-05  0  0.8473E-06
   (  1,  8, 15)  (  1,  7, 22)  (  1, 15, 14)  (  1, 18, 19)  (  1,  1, 13)
  1 -0.5170E-06  0  0.2985E-06  0  0.2509E-06  0  0.1752E-06  0  0.8410E-07
   (  1,  6, 17)  (  1,  1, 15)  (  1,  7,  9)  (  1,  1, 16)  (  1,  4, 12)
  1 -0.7372E-07  0 -0.5485E-07  0 -0.2306E-07  0  0.1235E-07  0  0.6913E-08
   (  1,  8, 15)  (  1,  7, 22)  (  1, 15, 15)  (  1, 18, 19)  (  1,  1, 13)
  1 -0.4350E-08
   (  1,  5, 16)

 MAXIMUM RESIDUAL FOR EACH ITERATION (1 INDICATES THE FIRST INNER ITERATION):

    RESIDUAL       RESIDUAL       RESIDUAL       RESIDUAL       RESIDUAL    
   LAYER,ROW,COL  LAYER,ROW,COL  LAYER,ROW,COL  LAYER,ROW,COL  LAYER,ROW,COL
 ---------------------------------------------------------------------------
  1   1953.      0   726.8      0   274.2      0   179.9      0   90.52    
   (  1,  8, 15)  (  1,  8, 15)  (  1,  9, 14)  (  1,  7, 16)  (  1,  7, 16)
  1   79.25      0   41.41      0   16.56      0   13.77      0   11.92    
   (  1,  9, 14)  (  1,  7, 16)  (  1,  8, 15)  (  1,  8, 15)  (  1,  8, 15)
  1   8.202      0   3.362      0   1.462      0   1.056      0  0.5986    
   (  1,  8, 15)  (  1,  8, 15)  (  1,  9, 14)  (  1,  7, 16)  (  1,  7, 16)
  1  0.5071      0  0.2369      0  0.1103      0  0.9478E-01  0  0.7926E-01
   (  1,  9, 14)  (  1,  7, 16)  (  1,  8, 15)  (  1,  8, 15)  (  1,  8, 15)
  1  0.5332E-01  0  0.2053E-01  0  0.1095E-01  0  0.7415E-02  0  0.4495E-02
   (  1,  8, 15)  (  1,  8, 15)  (  1,  9, 14)  (  1,  7, 16)  (  1,  7, 16)
  1  0.3563E-02  0  0.1603E-02  0  0.8410E-03  0  0.6953E-03  0  0.5757E-03
   (  1,  9, 14)  (  1,  9, 14)  (  1,  6, 17)  (  1,  8, 15)  (  1,  8, 15)
  1  0.3823E-03  0  0.1436E-03  0 -0.8316E-04  0  0.5469E-04  0  0.3510E-04
   (  1,  8, 15)  (  1,  8, 15)  (  1,  1,  2)  (  1,  7, 16)  (  1,  7, 16)
  1  0.2677E-04  0 -0.1294E-04  0 -0.6751E-05  0  0.5323E-05  0  0.4378E-05
   (  1,  9, 14)  (  1,  1,  2)  (  1,  2,  2)  (  1,  8, 15)  (  1,  8, 15)
  1  0.2883E-05  0 -0.1167E-05  0 -0.6936E-06  0  0.4183E-06  0  0.2792E-06
   (  1,  8, 15)  (  1,  3,  2)  (  1,  1,  2)  (  1,  9, 14)  (  1,  7, 16)
  1  0.2081E-06
   (  1,  9, 14)



 OUTPUT CONTROL FOR STRESS PERIOD    1   TIME STEP    1
    SAVE HEAD FOR ALL LAYERS

 HEAD WILL BE SAVED ON UNIT   51 AT END OF TIME STEP    1, STRESS PERIOD    1
1
  VOLUMETRIC BUDGET FOR ENTIRE MODEL AT END OF TIME STEP    1, STRESS PERIOD   1
  ------------------------------------------------------------------------------

     CUMULATIVE VOLUMES      L**3       RATES FOR THIS TIME STEP      L**3/T
     ------------------                 ------------------------

           IN:                                      IN:
           ---                                      ---
             STORAGE =           0.0000               STORAGE =           0.0000
       CONSTANT HEAD =     4515254.5000         CONSTANT HEAD =        4515.2544
               WELLS =           0.0000                 WELLS =           0.0000

            TOTAL IN =     4515254.5000              TOTAL IN =        4515.2544

          OUT:                                     OUT:
          ----                                     ----
             STORAGE =           0.0000               STORAGE =           0.0000
       CONSTANT HEAD =           0.0000         CONSTANT HEAD =           0.0000
               WELLS =     4515254.5000                 WELLS =        4515.2544

           TOTAL OUT =     4515254.5000             TOTAL OUT =        4515.2544

            IN - OUT =           0.0000              IN - OUT =           0.0000

 PERCENT DISCREPANCY =           0.00     PERCENT DISCREPANCY =           0.00






         TIME SUMMARY AT END OF TIME STEP    1 IN STRESS PERIOD    1
                    SECONDS     MINUTES      HOURS       DAYS        YEARS
                    -----------------------------------------------------------
   TIME STEP LENGTH 8.64000E+07 1.44000E+06  24000.     1000.00      2.7379    
 STRESS PERIOD TIME 8.64000E+07 1.44000E+06  24000.     1000.00      2.7379    
         TOTAL TIME 8.64000E+07 1.44000E+06  24000.     1000.00      2.7379    
1

 Run end date and time (yyyy/mm/dd hh:mm:ss): 2016/09/19 14:03:20
 Elapsed run time:  0.031 Seconds

