                                  MODFLOW-NWT-SWR1 
      U.S. GEOLOGICAL SURVEY MODULAR FINITE-DIFFERENCE GROUNDWATER-FLOW MODEL
                            VERSION 1.0.8 09/01/2013
                    BASED ON MODFLOW-2005 VERSION 1.11.00 08/30/2013

 LIST FILE: Tidal_MultiLayer.list
                         UNIT    2

 OPENING Tidal_MultiLayer.dis
 FILE TYPE:DIS   UNIT   11   STATUS:OLD    
 FORMAT:FORMATTED              ACCESS:SEQUENTIAL          

 OPENING Tidal_MultiLayer.bas
 FILE TYPE:BAS6   UNIT   13   STATUS:OLD    
 FORMAT:FORMATTED              ACCESS:SEQUENTIAL          

 OPENING Tidal_MultiLayer.lpf
 FILE TYPE:LPF   UNIT   15   STATUS:OLD    
 FORMAT:FORMATTED              ACCESS:SEQUENTIAL          

 OPENING Tidal_MultiLayer.swr
 FILE TYPE:SWR   UNIT   36   STATUS:OLD    
 FORMAT:FORMATTED              ACCESS:SEQUENTIAL          

 OPENING Tidal_MultiLayer.pcg
 FILE TYPE:PCG   UNIT   27   STATUS:OLD    
 FORMAT:FORMATTED              ACCESS:SEQUENTIAL          

 OPENING Tidal_MultiLayer.oc
 FILE TYPE:OC   UNIT   14   STATUS:OLD    
 FORMAT:FORMATTED              ACCESS:SEQUENTIAL          

 OPENING Tidal_MultiLayer.hds
 FILE TYPE:DATA(BINARY)   UNIT   51   STATUS:REPLACE
 FORMAT:BINARY                 ACCESS:SEQUENTIAL          

 OPENING Tidal_MultiLayer.ddn
 FILE TYPE:DATA(BINARY)   UNIT   52   STATUS:REPLACE
 FORMAT:BINARY                 ACCESS:SEQUENTIAL          

 OPENING Tidal_MultiLayer.cbc
 FILE TYPE:DATA(BINARY)   UNIT   53   STATUS:REPLACE
 FORMAT:BINARY                 ACCESS:SEQUENTIAL          

 OPENING swrref\TidalData.ref
 FILE TYPE:DATA   UNIT  201   STATUS:UNKNOWN
 FORMAT:FORMATTED              ACCESS:SEQUENTIAL          

 OPENING Tidal_MultiLayer.stage.csv
 FILE TYPE:DATA   UNIT  202   STATUS:UNKNOWN
 FORMAT:FORMATTED              ACCESS:SEQUENTIAL          

 BAS -- BASIC PACKAGE, VERSION 7, 5/2/2005 INPUT READ FROM UNIT   13
 
 MODFLOW was compiled using mixed precision
 Precision of REAL variables:           6
 Precision of DOUBLE PRECISION variables:          15

 DISCRETIZATION INPUT DATA READ FROM UNIT   11
 # Discretization file for MODFLOW, generated by Flopy.
    3 LAYERS        50 ROWS        25 COLUMNS
    2 STRESS PERIOD(S) IN SIMULATION
 MODEL TIME UNIT IS DAYS
 MODEL LENGTH UNIT IS UNDEFINED
  Confining bed flag for each layer:
   0   0   0

                     DELR =   20.0000    

                     DELC =   20.0000    



           TOP ELEVATION OF LAYER 1
 READING ON UNIT   11 WITH FORMAT: (25G15.6)           



             MODEL LAYER BOTTOM EL. FOR LAYER   1
 READING ON UNIT   11 WITH FORMAT: (25G15.6)           



             MODEL LAYER BOTTOM EL. FOR LAYER   2
 READING ON UNIT   11 WITH FORMAT: (25G15.6)           



             MODEL LAYER BOTTOM EL. FOR LAYER   3
 READING ON UNIT   11 WITH FORMAT: (25G15.6)           


 STRESS PERIOD     LENGTH       TIME STEPS     MULTIPLIER FOR DELT    SS FLAG
 ----------------------------------------------------------------------------
        1        1.0000000        240                    1.000         TR
        2        1.0000000        240                    1.000         TR

 TRANSIENT SIMULATION



 
 # Basic package file for MODFLOW, generated by Flopy.                           
 THE FREE FORMAT OPTION HAS BEEN SELECTED
 When solver convergence criteria are not met,
 execution will continue unless the budget percent
 discrepancy is greater than:    0.0100



                     BOUNDARY ARRAY FOR LAYER   1
 READING ON UNIT   13 WITH FORMAT: (25I10)             



                     BOUNDARY ARRAY FOR LAYER   2
 READING ON UNIT   13 WITH FORMAT: (25I10)             



                     BOUNDARY ARRAY FOR LAYER   3
 READING ON UNIT   13 WITH FORMAT: (25I10)             

 AQUIFER HEAD WILL BE SET TO  1.00000E+30 AT ALL NO-FLOW NODES (IBOUND=0).



                       INITIAL HEAD FOR LAYER   1
 READING ON UNIT   13 WITH FORMAT: (25G15.6)           



                       INITIAL HEAD FOR LAYER   2
 READING ON UNIT   13 WITH FORMAT: (25G15.6)           



                       INITIAL HEAD FOR LAYER   3
 READING ON UNIT   13 WITH FORMAT: (25G15.6)           
 # Output control package file for MODFLOW, generated by Flopy.

 OUTPUT CONTROL IS SPECIFIED EVERY TIME STEP
 HEAD PRINT FORMAT CODE IS  -4    DRAWDOWN PRINT FORMAT CODE IS  -4
 HEADS WILL BE SAVED ON UNIT   51    DRAWDOWNS WILL BE SAVED ON UNIT   52

 LPF -- LAYER-PROPERTY FLOW PACKAGE, VERSION 7, 5/2/2005
         INPUT READ FROM UNIT   15
 # LPF for MODFLOW, generated by Flopy.
 CELL-BY-CELL FLOWS WILL BE SAVED ON UNIT   53
 HEAD AT CELLS THAT CONVERT TO DRY=  1.00000E+31
 No named parameters

   LAYER FLAGS:
 LAYER       LAYTYP        LAYAVG         CHANI        LAYVKA        LAYWET
 ---------------------------------------------------------------------------
    1             1             0     1.000E+00             0             0
    2             0             0     1.000E+00             0             0
    3             0             0     1.000E+00             0             0

   INTERPRETATION OF LAYER FLAGS:
                        INTERBLOCK     HORIZONTAL    DATA IN
         LAYER TYPE   TRANSMISSIVITY   ANISOTROPY   ARRAY VKA   WETTABILITY
 LAYER      (LAYTYP)      (LAYAVG)       (CHANI)      (LAYVKA)      (LAYWET)
 ---------------------------------------------------------------------------
    1   CONVERTIBLE      HARMONIC     1.000E+00    VERTICAL K  NON-WETTABLE
    2      CONFINED      HARMONIC     1.000E+00    VERTICAL K  NON-WETTABLE
    3      CONFINED      HARMONIC     1.000E+00    VERTICAL K  NON-WETTABLE

 WETTING CAPABILITY IS NOT ACTIVE IN ANY LAYER

 OPENING FILE ON UNIT   99:
 ref\real4.ref                                                                                                                                                                                           



              HYD. COND. ALONG ROWS FOR LAYER   1
 READING ON UNIT   99 WITH FORMAT: (FREE)              

 OPENING FILE ON UNIT   99:
 ref\real4.ref                                                                                                                                                                                           



                VERTICAL HYD. COND. FOR LAYER   1
 READING ON UNIT   99 WITH FORMAT: (FREE)              

         SPECIFIC STORAGE =  1.000000E-05 FOR LAYER   1

 OPENING FILE ON UNIT   99:
 ref\sy_1.ref                                                                                                                                                                                            



                     SPECIFIC YIELD FOR LAYER   1
 READING ON UNIT   99 WITH FORMAT: (FREE)              

 OPENING FILE ON UNIT   99:
 ref\real6.ref                                                                                                                                                                                           



              HYD. COND. ALONG ROWS FOR LAYER   2
 READING ON UNIT   99 WITH FORMAT: (FREE)              

 OPENING FILE ON UNIT   99:
 ref\real6.ref                                                                                                                                                                                           



                VERTICAL HYD. COND. FOR LAYER   2
 READING ON UNIT   99 WITH FORMAT: (FREE)              

 OPENING FILE ON UNIT   99:
 ref\s_2.ref                                                                                                                                                                                             



                   SPECIFIC STORAGE FOR LAYER   2
 READING ON UNIT   99 WITH FORMAT: (FREE)              

 OPENING FILE ON UNIT   99:
 ref\real7.ref                                                                                                                                                                                           



              HYD. COND. ALONG ROWS FOR LAYER   3
 READING ON UNIT   99 WITH FORMAT: (FREE)              

 OPENING FILE ON UNIT   99:
 ref\real7.ref                                                                                                                                                                                           



                VERTICAL HYD. COND. FOR LAYER   3
 READING ON UNIT   99 WITH FORMAT: (FREE)              

 OPENING FILE ON UNIT   99:
 ref\s_3.ref                                                                                                                                                                                             



                   SPECIFIC STORAGE FOR LAYER   3
 READING ON UNIT   99 WITH FORMAT: (FREE)              

 PCG -- CONJUGATE-GRADIENT SOLUTION PACKAGE, VERSION 7, 5/2/2005
 # PCG for MODFLOW, generated by Flopy.
 MAXIMUM OF    100 CALLS OF SOLUTION ROUTINE
 MAXIMUM OF     50 INTERNAL ITERATIONS PER CALL TO SOLUTION ROUTINE
 MATRIX PRECONDITIONING TYPE :    1



                                    SOLUTION BY THE CONJUGATE-GRADIENT METHOD
                                   -------------------------------------------
                    MAXIMUM NUMBER OF CALLS TO PCG ROUTINE =      100
                        MAXIMUM ITERATIONS PER CALL TO PCG =       50
                               MATRIX PRECONDITIONING TYPE =        1
        RELAXATION FACTOR (ONLY USED WITH PRECOND. TYPE 1) =    0.97000E+00
 PARAMETER OF POLYNOMIAL PRECOND. = 2 (2) OR IS CALCULATED :        0
                         HEAD CHANGE CRITERION FOR CLOSURE =    0.10000E-05
                     RESIDUAL CHANGE CRITERION FOR CLOSURE =    0.10000E+00
            PCG HEAD AND RESIDUAL CHANGE PRINTOUT INTERVAL =        1
     PRINTING FROM SOLVER IS LIMITED(1) OR SUPPRESSED (>1) =        1
                            STEADY-STATE DAMPING PARAMETER =    0.10000E+01
                               TRANSIENT DAMPING PARAMETER =    0.10000E+01

 SWR -- SURFACE-WATER ROUTING PACKAGE,
 $Id: gwf2swr7.f 1.03 2013-09-24 15:00:00Z jdhughes $            
 INPUT READ FROM UNIT   36

 ...READING SWR1 PROCESS DATASET 1A
 SWR1 OPTIONS SPECIFIED IN DATASET 1B

 ...READING SWR1 PROCESS DATASET 1B


 SUMMARY OF SWR1 OPTIONS USED IN SIMULATION
 OPTION OPTION KEYWORD                       FILE UNIT
 ------ ----------------------------------- ----------
      7 USE_TABFILES                              NONE
      8 USE_NONCONVERGENCE_CONTINUE               NONE
 -----------------------------------------------------

 ...READING SWR1 PROCESS DATASET 2

 ...READING SWR1 PROCESS DATASET 3

 NUMBER OF REACHES                         =   74
 SURFACE WATER ONLY SIMULATION (>0=TRUE)   =    0
 LENGTH CONVERSION FACTOR                  =  1.0000000    
 TIME CONVERSION FACTOR                    =   86400.00    
 MINIMUM GRADIENT FOR FLOW                 =  0.1000000E-05
 MAXIMUM DEPTH FOR SCALING REACH OUTFLOW   =  0.1000000E-01
 MINIMUM DEPTH FOR REACH OUTFLOW           =  0.1000000E-02
 DIFFUSIVE-WAVE APPROX. SPATIAL WEIGHTING  = CENTRAL             
 DEPTH SCALING                             = SIGMOID             
 TWO-DIMENSIONAL COORD.-INVARIANT APPROACH = EXPLICIT            
 MINIMUM ROUTING TIME STEP LENGTH          =  0.4166667E-02
 MAXIMUM ROUTING TIME STEP LENGTH          =  0.4166667E-02
 INITIAL ROUTING TIME STEP LENGTH          =  0.4166667E-02
 OUTPUT PRINT INCREMENT                    =   0.000000    
 ADAPTIVE TIME STEP INCREMENT (RTMULT)     =  1.0000000    
 ADAPTIVE TIME STEP INCREMENT FREQUENCY    =    1
 MAXIMUM RAINFALL      PER ROUTING STEP    =   0.000000    
 MAXIMUM STAGE  CHANGE PER ROUTING STEP    =   0.000000    
 MAXIMUM INFLOW CHANGE PER ROUTING STEP    =   0.000000    

 CBC OUTPUT UNIT (ISWRCBC)                 =    0
 GROUP FLOW TERMS OUTPUT UNIT (ISWRPRGF)   =    0
 REACH STAGE OUTPUT UNIT (ISWRPSTG)        =  202
 REACH AQ-RCH FLOW OUTPUT UNIT (ISWRPQAQ)  =    0
 REACH LATERAL FLOW OUTPUT UNIT (ISWRPQM)  =    0
 STRUCTURE FLOW OUTPUT UNIT (ISWRPSTR)     =    0
 SUMMARY VELOCITY AND FROUDE INFORMATION   =    F


               --- SWR SOLVER PARAMETERS ---
 SOLVER = LU DECOMPOSITION USING CROUT’S ALGORITHM
 PRECONDITIONER                            = NONE                
 JACOBIAN SCALING                          = NO SCALING          
 MAXIMUM NUMBER OF OUTER ITERATIONS        =   31
 MAXIMUM NUMBER OF INNER ITERATIONS        =  100
 NON-CONVERGENCE CONT.OF SWR AND MODFLOW   =    T
 MAXIMUM STAGE    TOLERANCE (TOLS)         =  0.1000000E-02
 MAXIMUM ROOT     TOLERANCE (TOLR)         =  0.8640000E+04
 INEXACT NEWTON APPROACH (INEXCTNWT)       =    F
 MAXIMUM AQ-RCH FLOW TOLERANCE (TOLA)      =  0.1000000E-01
 STEADY-STATE DAMPENING PARAMETER (DAMPSS) =  0.1000000E+01
 TRANSIENT DAMPENING PARAMETER (DAMPTR)    =  0.1000000E+01
 PSEUDO-TRANSIENT CONTINUATION APPROACH    =    F
 SOLVER OUTPUT FREQUENCY (IPRSWR)          =  999
 CONVERGENCE PRINTING FLAG (MUTSWR)        =    0
   0 - MAXIMUM RESIDUAL EACH SWR TIMESTEP
   1 - TOTAL NUMBER OF ITERATIONS EACH SWR TIMESTEP
   2 - NO PRINTING
   3 - PRINTING IF CONVERGENCE FAILS
 BACKTRACKING ALLOWED                      =    T
 MAXIMUM BACKTRACKING ITERATIONS (IBT)     =   10
 BACKTRACKING OUTPUT FREQUENCY  (IBTPRT)   =    0

 ...READING SWR1 PROCESS DATASET 4A

 ...READING SWR1 PROCESS DATASET 4B

 -----------------------------------------------------------
 FULL REACH CONNECTIVITY FOR EACH REACH

 -----------------------------------------------------------
 REACH  =     1
               -----------------CONNECTIONS-----------------
                            1
 -----------------------------------------------------------
 REACHES           1 TO     2
 -----------------------------------------------------------

 -----------------------------------------------------------
 REACH  =     2
               -----------------CONNECTIONS-----------------
                            1              2
 -----------------------------------------------------------
 REACHES           2 TO     1     2 TO     3
 -----------------------------------------------------------

 -----------------------------------------------------------
 REACH  =     3
               -----------------CONNECTIONS-----------------
                            1              2
 -----------------------------------------------------------
 REACHES           3 TO     2     3 TO     4
 -----------------------------------------------------------

 -----------------------------------------------------------
 REACH  =     4
               -----------------CONNECTIONS-----------------
                            1              2
 -----------------------------------------------------------
 REACHES           4 TO     3     4 TO     5
 -----------------------------------------------------------

 -----------------------------------------------------------
 REACH  =     5
               -----------------CONNECTIONS-----------------
                            1              2
 -----------------------------------------------------------
 REACHES           5 TO     4     5 TO     6
 -----------------------------------------------------------

 -----------------------------------------------------------
 REACH  =     6
               -----------------CONNECTIONS-----------------
                            1              2
 -----------------------------------------------------------
 REACHES           6 TO     5     6 TO     7
 -----------------------------------------------------------

 -----------------------------------------------------------
 REACH  =     7
               -----------------CONNECTIONS-----------------
                            1              2
 -----------------------------------------------------------
 REACHES           7 TO     6     7 TO     8
 -----------------------------------------------------------

 -----------------------------------------------------------
 REACH  =     8
               -----------------CONNECTIONS-----------------
                            1              2
 -----------------------------------------------------------
 REACHES           8 TO     7     8 TO     9
 -----------------------------------------------------------

 -----------------------------------------------------------
 REACH  =     9
               -----------------CONNECTIONS-----------------
                            1              2
 -----------------------------------------------------------
 REACHES           9 TO     8     9 TO    10
 -----------------------------------------------------------

 -----------------------------------------------------------
 REACH  =    10
               -----------------CONNECTIONS-----------------
                            1              2
 -----------------------------------------------------------
 REACHES          10 TO     9    10 TO    11
 -----------------------------------------------------------

 -----------------------------------------------------------
 REACH  =    11
               -----------------CONNECTIONS-----------------
                            1              2
 -----------------------------------------------------------
 REACHES          11 TO    10    11 TO    12
 -----------------------------------------------------------

 -----------------------------------------------------------
 REACH  =    12
               -----------------CONNECTIONS-----------------
                            1              2
 -----------------------------------------------------------
 REACHES          12 TO    11    12 TO    13
 -----------------------------------------------------------

 -----------------------------------------------------------
 REACH  =    13
               -----------------CONNECTIONS-----------------
                            1              2
 -----------------------------------------------------------
 REACHES          13 TO    12    13 TO    14
 -----------------------------------------------------------

 -----------------------------------------------------------
 REACH  =    14
               -----------------CONNECTIONS-----------------
                            1              2
 -----------------------------------------------------------
 REACHES          14 TO    13    14 TO    15
 -----------------------------------------------------------

 -----------------------------------------------------------
 REACH  =    15
               -----------------CONNECTIONS-----------------
                            1              2
 -----------------------------------------------------------
 REACHES          15 TO    14    15 TO    16
 -----------------------------------------------------------

 -----------------------------------------------------------
 REACH  =    16
               -----------------CONNECTIONS-----------------
                            1              2
 -----------------------------------------------------------
 REACHES          16 TO    15    16 TO    17
 -----------------------------------------------------------

 -----------------------------------------------------------
 REACH  =    17
               -----------------CONNECTIONS-----------------
                            1              2
 -----------------------------------------------------------
 REACHES          17 TO    16    17 TO    18
 -----------------------------------------------------------

 -----------------------------------------------------------
 REACH  =    18
               -----------------CONNECTIONS-----------------
                            1              2
 -----------------------------------------------------------
 REACHES          18 TO    17    18 TO    19
 -----------------------------------------------------------

 -----------------------------------------------------------
 REACH  =    19
               -----------------CONNECTIONS-----------------
                            1              2
 -----------------------------------------------------------
 REACHES          19 TO    18    19 TO    20
 -----------------------------------------------------------

 -----------------------------------------------------------
 REACH  =    20
               -----------------CONNECTIONS-----------------
                            1              2
 -----------------------------------------------------------
 REACHES          20 TO    19    20 TO    21
 -----------------------------------------------------------

 -----------------------------------------------------------
 REACH  =    21
               -----------------CONNECTIONS-----------------
                            1              2
 -----------------------------------------------------------
 REACHES          21 TO    20    21 TO    22
 -----------------------------------------------------------

 -----------------------------------------------------------
 REACH  =    22
               -----------------CONNECTIONS-----------------
                            1              2
 -----------------------------------------------------------
 REACHES          22 TO    21    22 TO    23
 -----------------------------------------------------------

 -----------------------------------------------------------
 REACH  =    23
               -----------------CONNECTIONS-----------------
                            1              2
 -----------------------------------------------------------
 REACHES          23 TO    22    23 TO    24
 -----------------------------------------------------------

 -----------------------------------------------------------
 REACH  =    24
               -----------------CONNECTIONS-----------------
                            1              2
 -----------------------------------------------------------
 REACHES          24 TO    23    24 TO    25
 -----------------------------------------------------------

 -----------------------------------------------------------
 REACH  =    25
               -----------------CONNECTIONS-----------------
                            1              2
 -----------------------------------------------------------
 REACHES          25 TO    24    25 TO    26
 -----------------------------------------------------------

 -----------------------------------------------------------
 REACH  =    26
               -----------------CONNECTIONS-----------------
                            1              2
 -----------------------------------------------------------
 REACHES          26 TO    25    26 TO    27
 -----------------------------------------------------------

 -----------------------------------------------------------
 REACH  =    27
               -----------------CONNECTIONS-----------------
                            1              2
 -----------------------------------------------------------
 REACHES          27 TO    26    27 TO    28
 -----------------------------------------------------------

 -----------------------------------------------------------
 REACH  =    28
               -----------------CONNECTIONS-----------------
                            1              2
 -----------------------------------------------------------
 REACHES          28 TO    27    28 TO    29
 -----------------------------------------------------------

 -----------------------------------------------------------
 REACH  =    29
               -----------------CONNECTIONS-----------------
                            1              2
 -----------------------------------------------------------
 REACHES          29 TO    28    29 TO    30
 -----------------------------------------------------------

 -----------------------------------------------------------
 REACH  =    30
               -----------------CONNECTIONS-----------------
                            1              2
 -----------------------------------------------------------
 REACHES          30 TO    29    30 TO    31
 -----------------------------------------------------------

 -----------------------------------------------------------
 REACH  =    31
               -----------------CONNECTIONS-----------------
                            1              2
 -----------------------------------------------------------
 REACHES          31 TO    30    31 TO    32
 -----------------------------------------------------------

 -----------------------------------------------------------
 REACH  =    32
               -----------------CONNECTIONS-----------------
                            1              2
 -----------------------------------------------------------
 REACHES          32 TO    31    32 TO    33
 -----------------------------------------------------------

 -----------------------------------------------------------
 REACH  =    33
               -----------------CONNECTIONS-----------------
                            1              2
 -----------------------------------------------------------
 REACHES          33 TO    32    33 TO    34
 -----------------------------------------------------------

 -----------------------------------------------------------
 REACH  =    34
               -----------------CONNECTIONS-----------------
                            1              2
 -----------------------------------------------------------
 REACHES          34 TO    33    34 TO    35
 -----------------------------------------------------------

 -----------------------------------------------------------
 REACH  =    35
               -----------------CONNECTIONS-----------------
                            1              2
 -----------------------------------------------------------
 REACHES          35 TO    34    35 TO    36
 -----------------------------------------------------------

 -----------------------------------------------------------
 REACH  =    36
               -----------------CONNECTIONS-----------------
                            1              2
 -----------------------------------------------------------
 REACHES          36 TO    35    36 TO    37
 -----------------------------------------------------------

 -----------------------------------------------------------
 REACH  =    37
               -----------------CONNECTIONS-----------------
                            1              2
 -----------------------------------------------------------
 REACHES          37 TO    36    37 TO    38
 -----------------------------------------------------------

 -----------------------------------------------------------
 REACH  =    38
               -----------------CONNECTIONS-----------------
                            1              2
 -----------------------------------------------------------
 REACHES          38 TO    37    38 TO    39
 -----------------------------------------------------------

 -----------------------------------------------------------
 REACH  =    39
               -----------------CONNECTIONS-----------------
                            1              2
 -----------------------------------------------------------
 REACHES          39 TO    38    39 TO    40
 -----------------------------------------------------------

 -----------------------------------------------------------
 REACH  =    40
               -----------------CONNECTIONS-----------------
                            1              2
 -----------------------------------------------------------
 REACHES          40 TO    39    40 TO    41
 -----------------------------------------------------------

 -----------------------------------------------------------
 REACH  =    41
               -----------------CONNECTIONS-----------------
                            1              2
 -----------------------------------------------------------
 REACHES          41 TO    40    41 TO    42
 -----------------------------------------------------------

 -----------------------------------------------------------
 REACH  =    42
               -----------------CONNECTIONS-----------------
                            1              2
 -----------------------------------------------------------
 REACHES          42 TO    41    42 TO    43
 -----------------------------------------------------------

 -----------------------------------------------------------
 REACH  =    43
               -----------------CONNECTIONS-----------------
                            1              2
 -----------------------------------------------------------
 REACHES          43 TO    42    43 TO    44
 -----------------------------------------------------------

 -----------------------------------------------------------
 REACH  =    44
               -----------------CONNECTIONS-----------------
                            1              2
 -----------------------------------------------------------
 REACHES          44 TO    43    44 TO    45
 -----------------------------------------------------------

 -----------------------------------------------------------
 REACH  =    45
               -----------------CONNECTIONS-----------------
                            1              2
 -----------------------------------------------------------
 REACHES          45 TO    44    45 TO    46
 -----------------------------------------------------------

 -----------------------------------------------------------
 REACH  =    46
               -----------------CONNECTIONS-----------------
                            1              2
 -----------------------------------------------------------
 REACHES          46 TO    45    46 TO    47
 -----------------------------------------------------------

 -----------------------------------------------------------
 REACH  =    47
               -----------------CONNECTIONS-----------------
                            1              2
 -----------------------------------------------------------
 REACHES          47 TO    46    47 TO    48
 -----------------------------------------------------------

 -----------------------------------------------------------
 REACH  =    48
               -----------------CONNECTIONS-----------------
                            1              2
 -----------------------------------------------------------
 REACHES          48 TO    47    48 TO    49
 -----------------------------------------------------------

 -----------------------------------------------------------
 REACH  =    49
               -----------------CONNECTIONS-----------------
                            1              2
 -----------------------------------------------------------
 REACHES          49 TO    48    49 TO    50
 -----------------------------------------------------------

 -----------------------------------------------------------
 REACH  =    50
               -----------------CONNECTIONS-----------------
                            1              2
 -----------------------------------------------------------
 REACHES          50 TO    49    50 TO    51
 -----------------------------------------------------------

 -----------------------------------------------------------
 REACH  =    51
               -----------------CONNECTIONS-----------------
                            1              2
 -----------------------------------------------------------
 REACHES          51 TO    50    51 TO    52
 -----------------------------------------------------------

 -----------------------------------------------------------
 REACH  =    52
               -----------------CONNECTIONS-----------------
                            1              2
 -----------------------------------------------------------
 REACHES          52 TO    51    52 TO    53
 -----------------------------------------------------------

 -----------------------------------------------------------
 REACH  =    53
               -----------------CONNECTIONS-----------------
                            1              2
 -----------------------------------------------------------
 REACHES          53 TO    52    53 TO    54
 -----------------------------------------------------------

 -----------------------------------------------------------
 REACH  =    54
               -----------------CONNECTIONS-----------------
                            1              2
 -----------------------------------------------------------
 REACHES          54 TO    53    54 TO    55
 -----------------------------------------------------------

 -----------------------------------------------------------
 REACH  =    55
               -----------------CONNECTIONS-----------------
                            1              2
 -----------------------------------------------------------
 REACHES          55 TO    54    55 TO    56
 -----------------------------------------------------------

 -----------------------------------------------------------
 REACH  =    56
               -----------------CONNECTIONS-----------------
                            1              2
 -----------------------------------------------------------
 REACHES          56 TO    55    56 TO    57
 -----------------------------------------------------------

 -----------------------------------------------------------
 REACH  =    57
               -----------------CONNECTIONS-----------------
                            1              2
 -----------------------------------------------------------
 REACHES          57 TO    56    57 TO    58
 -----------------------------------------------------------

 -----------------------------------------------------------
 REACH  =    58
               -----------------CONNECTIONS-----------------
                            1              2
 -----------------------------------------------------------
 REACHES          58 TO    57    58 TO    59
 -----------------------------------------------------------

 -----------------------------------------------------------
 REACH  =    59
               -----------------CONNECTIONS-----------------
                            1              2
 -----------------------------------------------------------
 REACHES          59 TO    58    59 TO    60
 -----------------------------------------------------------

 -----------------------------------------------------------
 REACH  =    60
               -----------------CONNECTIONS-----------------
                            1              2
 -----------------------------------------------------------
 REACHES          60 TO    59    60 TO    61
 -----------------------------------------------------------

 -----------------------------------------------------------
 REACH  =    61
               -----------------CONNECTIONS-----------------
                            1              2
 -----------------------------------------------------------
 REACHES          61 TO    60    61 TO    62
 -----------------------------------------------------------

 -----------------------------------------------------------
 REACH  =    62
               -----------------CONNECTIONS-----------------
                            1              2
 -----------------------------------------------------------
 REACHES          62 TO    61    62 TO    63
 -----------------------------------------------------------

 -----------------------------------------------------------
 REACH  =    63
               -----------------CONNECTIONS-----------------
                            1              2
 -----------------------------------------------------------
 REACHES          63 TO    62    63 TO    64
 -----------------------------------------------------------

 -----------------------------------------------------------
 REACH  =    64
               -----------------CONNECTIONS-----------------
                            1              2
 -----------------------------------------------------------
 REACHES          64 TO    63    64 TO    65
 -----------------------------------------------------------

 -----------------------------------------------------------
 REACH  =    65
               -----------------CONNECTIONS-----------------
                            1              2
 -----------------------------------------------------------
 REACHES          65 TO    64    65 TO    66
 -----------------------------------------------------------

 -----------------------------------------------------------
 REACH  =    66
               -----------------CONNECTIONS-----------------
                            1              2
 -----------------------------------------------------------
 REACHES          66 TO    65    66 TO    67
 -----------------------------------------------------------

 -----------------------------------------------------------
 REACH  =    67
               -----------------CONNECTIONS-----------------
                            1              2
 -----------------------------------------------------------
 REACHES          67 TO    66    67 TO    68
 -----------------------------------------------------------

 -----------------------------------------------------------
 REACH  =    68
               -----------------CONNECTIONS-----------------
                            1              2
 -----------------------------------------------------------
 REACHES          68 TO    67    68 TO    69
 -----------------------------------------------------------

 -----------------------------------------------------------
 REACH  =    69
               -----------------CONNECTIONS-----------------
                            1              2
 -----------------------------------------------------------
 REACHES          69 TO    68    69 TO    70
 -----------------------------------------------------------

 -----------------------------------------------------------
 REACH  =    70
               -----------------CONNECTIONS-----------------
                            1              2
 -----------------------------------------------------------
 REACHES          70 TO    69    70 TO    71
 -----------------------------------------------------------

 -----------------------------------------------------------
 REACH  =    71
               -----------------CONNECTIONS-----------------
                            1              2
 -----------------------------------------------------------
 REACHES          71 TO    70    71 TO    72
 -----------------------------------------------------------

 -----------------------------------------------------------
 REACH  =    72
               -----------------CONNECTIONS-----------------
                            1              2
 -----------------------------------------------------------
 REACHES          72 TO    71    72 TO    73
 -----------------------------------------------------------

 -----------------------------------------------------------
 REACH  =    73
               -----------------CONNECTIONS-----------------
                            1              2
 -----------------------------------------------------------
 REACHES          73 TO    72    73 TO    74
 -----------------------------------------------------------

 -----------------------------------------------------------
 REACH  =    74
               -----------------CONNECTIONS-----------------
                            1
 -----------------------------------------------------------
 REACHES          74 TO    73
 -----------------------------------------------------------


 TIME-INVARIANT SURFACE-WATER ROUTING REACH DATA
  REACH IROUTETYPE SOLUTION METHOD      IRGNUM    IRG    LAY    ROW    COL       DLEN
 --------------------------------------------------------------------------------------------------
      1          3 DIFFUSIVE-WAVE            1      1      0      1     25   20.0    
      2          3 DIFFUSIVE-WAVE            2      2      0      2     25   20.0    
      3          3 DIFFUSIVE-WAVE            3      3      0      3     25   20.0    
      4          3 DIFFUSIVE-WAVE            4      4      0      4     25   20.0    
      5          3 DIFFUSIVE-WAVE            5      5      0      5     25   20.0    
      6          3 DIFFUSIVE-WAVE            6      6      0      6     25   20.0    
      7          3 DIFFUSIVE-WAVE            7      7      0      7     25   20.0    
      8          3 DIFFUSIVE-WAVE            8      8      0      8     25   20.0    
      9          3 DIFFUSIVE-WAVE            9      9      0      9     25   20.0    
     10          3 DIFFUSIVE-WAVE           10     10      0     10     25   20.0    
     11          3 DIFFUSIVE-WAVE           11     11      0     11     25   20.0    
     12          3 DIFFUSIVE-WAVE           12     12      0     12     25   20.0    
     13          3 DIFFUSIVE-WAVE           13     13      0     13     25   20.0    
     14          3 DIFFUSIVE-WAVE           14     14      0     14     25   20.0    
     15          3 DIFFUSIVE-WAVE           15     15      0     15     25   20.0    
     16          3 DIFFUSIVE-WAVE           16     16      0     16     25   20.0    
     17          3 DIFFUSIVE-WAVE           17     17      0     17     25   20.0    
     18          3 DIFFUSIVE-WAVE           18     18      0     18     25   20.0    
     19          3 DIFFUSIVE-WAVE           19     19      0     19     25   20.0    
     20          3 DIFFUSIVE-WAVE           20     20      0     20     25   20.0    
     21          3 DIFFUSIVE-WAVE           21     21      0     21     25   20.0    
     22          3 DIFFUSIVE-WAVE           22     22      0     22     25   20.0    
     23          3 DIFFUSIVE-WAVE           23     23      0     23     25   20.0    
     24          3 DIFFUSIVE-WAVE           24     24      0     24     25   20.0    
     25          3 DIFFUSIVE-WAVE           25     25      0     25     25   20.0    
     26          3 DIFFUSIVE-WAVE           26     26      0     26     25   20.0    
     27          3 DIFFUSIVE-WAVE           27     27      0     27     25   20.0    
     28          3 DIFFUSIVE-WAVE           28     28      0     28     25   20.0    
     29          3 DIFFUSIVE-WAVE           29     29      0     29     25   20.0    
     30          3 DIFFUSIVE-WAVE           30     30      0     30     25   20.0    
     31          3 DIFFUSIVE-WAVE           31     31      0     31     25   20.0    
     32          3 DIFFUSIVE-WAVE           32     32      0     32     25   20.0    
     33          3 DIFFUSIVE-WAVE           33     33      0     33     25   20.0    
     34          3 DIFFUSIVE-WAVE           34     34      0     34     25   20.0    
     35          3 DIFFUSIVE-WAVE           35     35      0     35     25   20.0    
     36          3 DIFFUSIVE-WAVE           36     36      0     36     25   20.0    
     37          3 DIFFUSIVE-WAVE           37     37      0     37     25   20.0    
     38          3 DIFFUSIVE-WAVE           38     38      0     38     25   20.0    
     39          3 DIFFUSIVE-WAVE           39     39      0     39     25   20.0    
     40          3 DIFFUSIVE-WAVE           40     40      0     40     25   20.0    
     41          3 DIFFUSIVE-WAVE           41     41      0     41     25   20.0    
     42          3 DIFFUSIVE-WAVE           42     42      0     42     25   20.0    
     43          3 DIFFUSIVE-WAVE           43     43      0     43     25   20.0    
     44          3 DIFFUSIVE-WAVE           44     44      0     44     25   20.0    
     45          3 DIFFUSIVE-WAVE           45     45      0     45     25   20.0    
     46          3 DIFFUSIVE-WAVE           46     46      0     46     25   20.0    
     47          3 DIFFUSIVE-WAVE           47     47      0     47     25   20.0    
     48          3 DIFFUSIVE-WAVE           48     48      0     48     25   20.0    
     49          3 DIFFUSIVE-WAVE           49     49      0     49     25   20.0    
     50          3 DIFFUSIVE-WAVE           50     50      1     50     25   20.0    
     51          3 DIFFUSIVE-WAVE           51     51      1     50     24   20.0    
     52          3 DIFFUSIVE-WAVE           52     52      1     50     23   20.0    
     53          3 DIFFUSIVE-WAVE           53     53      1     50     22   20.0    
     54          3 DIFFUSIVE-WAVE           54     54      1     50     21   20.0    
     55          3 DIFFUSIVE-WAVE           55     55      1     50     20   20.0    
     56          3 DIFFUSIVE-WAVE           56     56      1     50     19   20.0    
     57          3 DIFFUSIVE-WAVE           57     57      1     50     18   20.0    
     58          3 DIFFUSIVE-WAVE           58     58      1     50     17   20.0    
     59          3 DIFFUSIVE-WAVE           59     59      1     50     16   20.0    
     60          3 DIFFUSIVE-WAVE           60     60      1     50     15   20.0    
     61          3 DIFFUSIVE-WAVE           61     61      1     50     14   20.0    
     62          3 DIFFUSIVE-WAVE           62     62      1     50     13   20.0    
     63          3 DIFFUSIVE-WAVE           63     63      1     50     12   20.0    
     64          3 DIFFUSIVE-WAVE           64     64      1     50     11   20.0    
     65          3 DIFFUSIVE-WAVE           65     65      1     50     10   20.0    
     66          3 DIFFUSIVE-WAVE           66     66      1     50      9   20.0    
     67          3 DIFFUSIVE-WAVE           67     67      1     50      8   20.0    
     68          3 DIFFUSIVE-WAVE           68     68      1     50      7   20.0    
     69          3 DIFFUSIVE-WAVE           69     69      1     50      6   20.0    
     70          3 DIFFUSIVE-WAVE           70     70      1     50      5   20.0    
     71          3 DIFFUSIVE-WAVE           71     71      1     50      4   20.0    
     72          3 DIFFUSIVE-WAVE           72     72      1     50      3   20.0    
     73          3 DIFFUSIVE-WAVE           73     73      1     50      2   20.0    
     74          3 DIFFUSIVE-WAVE           74     74      1     50      1   20.0    


 SWR REACH GROUPS: REACHES IN REACH GROUP
 ---------------------------------------------------------------------
 REACH GROUP =     1 IRGNUM =     1    REACHES     1
 REACH GROUP =     2 IRGNUM =     2    REACHES     2
 REACH GROUP =     3 IRGNUM =     3    REACHES     3
 REACH GROUP =     4 IRGNUM =     4    REACHES     4
 REACH GROUP =     5 IRGNUM =     5    REACHES     5
 REACH GROUP =     6 IRGNUM =     6    REACHES     6
 REACH GROUP =     7 IRGNUM =     7    REACHES     7
 REACH GROUP =     8 IRGNUM =     8    REACHES     8
 REACH GROUP =     9 IRGNUM =     9    REACHES     9
 REACH GROUP =    10 IRGNUM =    10    REACHES    10
 REACH GROUP =    11 IRGNUM =    11    REACHES    11
 REACH GROUP =    12 IRGNUM =    12    REACHES    12
 REACH GROUP =    13 IRGNUM =    13    REACHES    13
 REACH GROUP =    14 IRGNUM =    14    REACHES    14
 REACH GROUP =    15 IRGNUM =    15    REACHES    15
 REACH GROUP =    16 IRGNUM =    16    REACHES    16
 REACH GROUP =    17 IRGNUM =    17    REACHES    17
 REACH GROUP =    18 IRGNUM =    18    REACHES    18
 REACH GROUP =    19 IRGNUM =    19    REACHES    19
 REACH GROUP =    20 IRGNUM =    20    REACHES    20
 REACH GROUP =    21 IRGNUM =    21    REACHES    21
 REACH GROUP =    22 IRGNUM =    22    REACHES    22
 REACH GROUP =    23 IRGNUM =    23    REACHES    23
 REACH GROUP =    24 IRGNUM =    24    REACHES    24
 REACH GROUP =    25 IRGNUM =    25    REACHES    25
 REACH GROUP =    26 IRGNUM =    26    REACHES    26
 REACH GROUP =    27 IRGNUM =    27    REACHES    27
 REACH GROUP =    28 IRGNUM =    28    REACHES    28
 REACH GROUP =    29 IRGNUM =    29    REACHES    29
 REACH GROUP =    30 IRGNUM =    30    REACHES    30
 REACH GROUP =    31 IRGNUM =    31    REACHES    31
 REACH GROUP =    32 IRGNUM =    32    REACHES    32
 REACH GROUP =    33 IRGNUM =    33    REACHES    33
 REACH GROUP =    34 IRGNUM =    34    REACHES    34
 REACH GROUP =    35 IRGNUM =    35    REACHES    35
 REACH GROUP =    36 IRGNUM =    36    REACHES    36
 REACH GROUP =    37 IRGNUM =    37    REACHES    37
 REACH GROUP =    38 IRGNUM =    38    REACHES    38
 REACH GROUP =    39 IRGNUM =    39    REACHES    39
 REACH GROUP =    40 IRGNUM =    40    REACHES    40
 REACH GROUP =    41 IRGNUM =    41    REACHES    41
 REACH GROUP =    42 IRGNUM =    42    REACHES    42
 REACH GROUP =    43 IRGNUM =    43    REACHES    43
 REACH GROUP =    44 IRGNUM =    44    REACHES    44
 REACH GROUP =    45 IRGNUM =    45    REACHES    45
 REACH GROUP =    46 IRGNUM =    46    REACHES    46
 REACH GROUP =    47 IRGNUM =    47    REACHES    47
 REACH GROUP =    48 IRGNUM =    48    REACHES    48
 REACH GROUP =    49 IRGNUM =    49    REACHES    49
 REACH GROUP =    50 IRGNUM =    50    REACHES    50
 REACH GROUP =    51 IRGNUM =    51    REACHES    51
 REACH GROUP =    52 IRGNUM =    52    REACHES    52
 REACH GROUP =    53 IRGNUM =    53    REACHES    53
 REACH GROUP =    54 IRGNUM =    54    REACHES    54
 REACH GROUP =    55 IRGNUM =    55    REACHES    55
 REACH GROUP =    56 IRGNUM =    56    REACHES    56
 REACH GROUP =    57 IRGNUM =    57    REACHES    57
 REACH GROUP =    58 IRGNUM =    58    REACHES    58
 REACH GROUP =    59 IRGNUM =    59    REACHES    59
 REACH GROUP =    60 IRGNUM =    60    REACHES    60
 REACH GROUP =    61 IRGNUM =    61    REACHES    61
 REACH GROUP =    62 IRGNUM =    62    REACHES    62
 REACH GROUP =    63 IRGNUM =    63    REACHES    63
 REACH GROUP =    64 IRGNUM =    64    REACHES    64
 REACH GROUP =    65 IRGNUM =    65    REACHES    65
 REACH GROUP =    66 IRGNUM =    66    REACHES    66
 REACH GROUP =    67 IRGNUM =    67    REACHES    67
 REACH GROUP =    68 IRGNUM =    68    REACHES    68
 REACH GROUP =    69 IRGNUM =    69    REACHES    69
 REACH GROUP =    70 IRGNUM =    70    REACHES    70
 REACH GROUP =    71 IRGNUM =    71    REACHES    71
 REACH GROUP =    72 IRGNUM =    72    REACHES    72
 REACH GROUP =    73 IRGNUM =    73    REACHES    73
 REACH GROUP =    74 IRGNUM =    74    REACHES    74

 ...READING SWR1 PROCESS DATASET 4C

 ...READING SWR1 PROCESS DATASET 4D


 SWR TABULAR DATA:
 TYPE                  FILE UNIT INTERPOLATION        REACHES
 ----------------------------------------------------------------------------------
 STAGE                       201 NONE                    50    51    52    53    54
                                                         55    56    57    58    59
                                                         60    61    62    63    64
                                                         65    66    67    68    69
                                                         70    71    72    73    74
1
                            STRESS PERIOD NO.    1, LENGTH =  1.0000000    
                            -----------------------------------------------

                              NUMBER OF TIME STEPS =   240

                               MULTIPLIER FOR DELT =     1.000

                            INITIAL TIME STEP SIZE =  0.4166667E-02

 ...READING SWR1 PROCESS DATASET 5

 ...READING SWR1 PROCESS DATASET 6

 OPENING FILE ON UNIT   99:
 swrref\Dataset6.ref                                                                                                                                                                                     


  SUMMARY OF SWR REACH BOUNDARY CONDITIONS
        IRG   INACTIVE   CONSTANT     ACTIVE
 ---------- ---------- ---------- ----------
          1          0          0          1
          2          0          0          1
          3          0          0          1
          4          0          0          1
          5          0          0          1
          6          0          0          1
          7          0          0          1
          8          0          0          1
          9          0          0          1
         10          0          0          1
         11          0          0          1
         12          0          0          1
         13          0          0          1
         14          0          0          1
         15          0          0          1
         16          0          0          1
         17          0          0          1
         18          0          0          1
         19          0          0          1
         20          0          0          1
         21          0          0          1
         22          0          0          1
         23          0          0          1
         24          0          0          1
         25          0          0          1
         26          0          0          1
         27          0          0          1
         28          0          0          1
         29          0          0          1
         30          0          0          1
         31          0          0          1
         32          0          0          1
         33          0          0          1
         34          0          0          1
         35          0          0          1
         36          0          0          1
         37          0          0          1
         38          0          0          1
         39          0          0          1
         40          0          0          1
         41          0          0          1
         42          0          0          1
         43          0          0          1
         44          0          0          1
         45          0          0          1
         46          0          0          1
         47          0          0          1
         48          0          0          1
         49          0          0          1
         50          0          1          0
         51          0          1          0
         52          0          1          0
         53          0          1          0
         54          0          1          0
         55          0          1          0
         56          0          1          0
         57          0          1          0
         58          0          1          0
         59          0          1          0
         60          0          1          0
         61          0          1          0
         62          0          1          0
         63          0          1          0
         64          0          1          0
         65          0          1          0
         66          0          1          0
         67          0          1          0
         68          0          1          0
         69          0          1          0
         70          0          1          0
         71          0          1          0
         72          0          1          0
         73          0          1          0
         74          0          1          0


                         CONSTANT STAGE/INACTIVE REACH GROUPS
 ------------------------------------------------------------------------------------------
 REACH GROUP =    50 IS DEFINED AS A CONSTANT STAGE ELEMENT
 REACH GROUP =    51 IS DEFINED AS A CONSTANT STAGE ELEMENT
 REACH GROUP =    52 IS DEFINED AS A CONSTANT STAGE ELEMENT
 REACH GROUP =    53 IS DEFINED AS A CONSTANT STAGE ELEMENT
 REACH GROUP =    54 IS DEFINED AS A CONSTANT STAGE ELEMENT
 REACH GROUP =    55 IS DEFINED AS A CONSTANT STAGE ELEMENT
 REACH GROUP =    56 IS DEFINED AS A CONSTANT STAGE ELEMENT
 REACH GROUP =    57 IS DEFINED AS A CONSTANT STAGE ELEMENT
 REACH GROUP =    58 IS DEFINED AS A CONSTANT STAGE ELEMENT
 REACH GROUP =    59 IS DEFINED AS A CONSTANT STAGE ELEMENT
 REACH GROUP =    60 IS DEFINED AS A CONSTANT STAGE ELEMENT
 REACH GROUP =    61 IS DEFINED AS A CONSTANT STAGE ELEMENT
 REACH GROUP =    62 IS DEFINED AS A CONSTANT STAGE ELEMENT
 REACH GROUP =    63 IS DEFINED AS A CONSTANT STAGE ELEMENT
 REACH GROUP =    64 IS DEFINED AS A CONSTANT STAGE ELEMENT
 REACH GROUP =    65 IS DEFINED AS A CONSTANT STAGE ELEMENT
 REACH GROUP =    66 IS DEFINED AS A CONSTANT STAGE ELEMENT
 REACH GROUP =    67 IS DEFINED AS A CONSTANT STAGE ELEMENT
 REACH GROUP =    68 IS DEFINED AS A CONSTANT STAGE ELEMENT
 REACH GROUP =    69 IS DEFINED AS A CONSTANT STAGE ELEMENT
 REACH GROUP =    70 IS DEFINED AS A CONSTANT STAGE ELEMENT
 REACH GROUP =    71 IS DEFINED AS A CONSTANT STAGE ELEMENT
 REACH GROUP =    72 IS DEFINED AS A CONSTANT STAGE ELEMENT
 REACH GROUP =    73 IS DEFINED AS A CONSTANT STAGE ELEMENT
 REACH GROUP =    74 IS DEFINED AS A CONSTANT STAGE ELEMENT

 SURFACE-WATER ROUTING BOUNDARY DATA 
      REACH    ISWRBND BND TYPE       
 ------------------------------------
          1          1 ACTIVE         
          2          1 ACTIVE         
          3          1 ACTIVE         
          4          1 ACTIVE         
          5          1 ACTIVE         
          6          1 ACTIVE         
          7          1 ACTIVE         
          8          1 ACTIVE         
          9          1 ACTIVE         
         10          1 ACTIVE         
         11          1 ACTIVE         
         12          1 ACTIVE         
         13          1 ACTIVE         
         14          1 ACTIVE         
         15          1 ACTIVE         
         16          1 ACTIVE         
         17          1 ACTIVE         
         18          1 ACTIVE         
         19          1 ACTIVE         
         20          1 ACTIVE         
         21          1 ACTIVE         
         22          1 ACTIVE         
         23          1 ACTIVE         
         24          1 ACTIVE         
         25          1 ACTIVE         
         26          1 ACTIVE         
         27          1 ACTIVE         
         28          1 ACTIVE         
         29          1 ACTIVE         
         30          1 ACTIVE         
         31          1 ACTIVE         
         32          1 ACTIVE         
         33          1 ACTIVE         
         34          1 ACTIVE         
         35          1 ACTIVE         
         36          1 ACTIVE         
         37          1 ACTIVE         
         38          1 ACTIVE         
         39          1 ACTIVE         
         40          1 ACTIVE         
         41          1 ACTIVE         
         42          1 ACTIVE         
         43          1 ACTIVE         
         44          1 ACTIVE         
         45          1 ACTIVE         
         46          1 ACTIVE         
         47          1 ACTIVE         
         48          1 ACTIVE         
         49          1 ACTIVE         
         50         -1 CONSTANT STAGE 
         51         -1 CONSTANT STAGE 
         52         -1 CONSTANT STAGE 
         53         -1 CONSTANT STAGE 
         54         -1 CONSTANT STAGE 
         55         -1 CONSTANT STAGE 
         56         -1 CONSTANT STAGE 
         57         -1 CONSTANT STAGE 
         58         -1 CONSTANT STAGE 
         59         -1 CONSTANT STAGE 
         60         -1 CONSTANT STAGE 
         61         -1 CONSTANT STAGE 
         62         -1 CONSTANT STAGE 
         63         -1 CONSTANT STAGE 
         64         -1 CONSTANT STAGE 
         65         -1 CONSTANT STAGE 
         66         -1 CONSTANT STAGE 
         67         -1 CONSTANT STAGE 
         68         -1 CONSTANT STAGE 
         69         -1 CONSTANT STAGE 
         70         -1 CONSTANT STAGE 
         71         -1 CONSTANT STAGE 
         72         -1 CONSTANT STAGE 
         73         -1 CONSTANT STAGE 
         74         -1 CONSTANT STAGE 

 ...READING SWR1 PROCESS DATASET 10

 OPENING FILE ON UNIT   99:
 swrref\Dataset10.ref                                                                                                                                                                                    

 ...READING SWR1 PROCESS DATASET 11

 OPENING FILE ON UNIT 9999:
 swrref\Dataset11.ref                                                                                                                                                                                    


 SURFACE-WATER ROUTING GENERIC GEOMETRY DATA FOR STRESS PERIOD         1

   GEO ITEM    IGEONUM   IGEOTYPE    IGCNDOP    NGEOPTS   GMANNING     GWIDTH     GBELEV    GSSLOPE   CONDUCT.   LEAKANCE     GCNDLN    GETEXTD
 ----------------------------------------------------------------------------------------------------------------------------------------------
          1          1          1          1          1  0.300E-01   15.0      -3.00                            0.100E+04                      
          2          2          5          1          1  0.300E-01                                              0.100E+04              0.00    


 REACH RATING CURVE DATA FOR STRESS PERIOD
 ------------------------------------------------------------------------------------------

 REACH   =     1
 LAYSTR  =     1
 LAYEND  =     1
          N   ELEVATION [L]  XSECTAREA [L2]     VOLUME [L3] WET. PERIM. [L]   TOP WIDTH [L] SURF. AREA [L2]
 ---------- --------------- --------------- --------------- --------------- --------------- ---------------
          1   -3.000000        0.000000        0.000000        0.000000        0.000000        0.000000    
          2   -2.999999       0.1500000E-04   0.3000000E-03    15.00000        15.00000        300.0000    
          3   -1.699999        19.50002        390.0003        17.60000        15.00000        300.0000    
          4  -0.3999988        39.00002        780.0004        20.20000        15.00000        300.0000    
          5   0.9000013        58.50002        1170.000        22.80000        15.00000        300.0000    
          6    2.200001        78.00002        1560.000        25.40000        15.00000        300.0000    
          7    3.500001        97.50002        1950.000        28.00000        15.00000        300.0000    
          8    4.800002        117.0000        2340.000        30.60000        15.00000        300.0000    
          9    6.100002        136.5000        2730.001        33.20000        15.00000        300.0000    
         10    7.400002        156.0000        3120.001        35.80000        15.00000        300.0000    
         11    8.700002        175.5000        3510.001        38.40000        15.00000        300.0000    
         12   10.000000        195.0000        3900.000        41.00000        15.00000        300.0000    
         13    10.00000        195.0000        3900.000        41.00000        15.00000        300.0000    
         14    20.00000        345.0000        6900.000        41.00000        15.00000        300.0000    

 REACH   =     2
 LAYSTR  =     1
 LAYEND  =     1
          N   ELEVATION [L]  XSECTAREA [L2]     VOLUME [L3] WET. PERIM. [L]   TOP WIDTH [L] SURF. AREA [L2]
 ---------- --------------- --------------- --------------- --------------- --------------- ---------------
          1   -3.000000        0.000000        0.000000        0.000000        0.000000        0.000000    
          2   -2.999999       0.1500000E-04   0.3000000E-03    15.00000        15.00000        300.0000    
          3   -1.699999        19.50002        390.0003        17.60000        15.00000        300.0000    
          4  -0.3999988        39.00002        780.0004        20.20000        15.00000        300.0000    
          5   0.9000013        58.50002        1170.000        22.80000        15.00000        300.0000    
          6    2.200001        78.00002        1560.000        25.40000        15.00000        300.0000    
          7    3.500001        97.50002        1950.000        28.00000        15.00000        300.0000    
          8    4.800002        117.0000        2340.000        30.60000        15.00000        300.0000    
          9    6.100002        136.5000        2730.001        33.20000        15.00000        300.0000    
         10    7.400002        156.0000        3120.001        35.80000        15.00000        300.0000    
         11    8.700002        175.5000        3510.001        38.40000        15.00000        300.0000    
         12   10.000000        195.0000        3900.000        41.00000        15.00000        300.0000    
         13    10.00000        195.0000        3900.000        41.00000        15.00000        300.0000    
         14    20.00000        345.0000        6900.000        41.00000        15.00000        300.0000    

 REACH   =     3
 LAYSTR  =     1
 LAYEND  =     1
          N   ELEVATION [L]  XSECTAREA [L2]     VOLUME [L3] WET. PERIM. [L]   TOP WIDTH [L] SURF. AREA [L2]
 ---------- --------------- --------------- --------------- --------------- --------------- ---------------
          1   -3.000000        0.000000        0.000000        0.000000        0.000000        0.000000    
          2   -2.999999       0.1500000E-04   0.3000000E-03    15.00000        15.00000        300.0000    
          3   -1.699999        19.50002        390.0003        17.60000        15.00000        300.0000    
          4  -0.3999988        39.00002        780.0004        20.20000        15.00000        300.0000    
          5   0.9000013        58.50002        1170.000        22.80000        15.00000        300.0000    
          6    2.200001        78.00002        1560.000        25.40000        15.00000        300.0000    
          7    3.500001        97.50002        1950.000        28.00000        15.00000        300.0000    
          8    4.800002        117.0000        2340.000        30.60000        15.00000        300.0000    
          9    6.100002        136.5000        2730.001        33.20000        15.00000        300.0000    
         10    7.400002        156.0000        3120.001        35.80000        15.00000        300.0000    
         11    8.700002        175.5000        3510.001        38.40000        15.00000        300.0000    
         12   10.000000        195.0000        3900.000        41.00000        15.00000        300.0000    
         13    10.00000        195.0000        3900.000        41.00000        15.00000        300.0000    
         14    20.00000        345.0000        6900.000        41.00000        15.00000        300.0000    

 REACH   =     4
 LAYSTR  =     1
 LAYEND  =     1
          N   ELEVATION [L]  XSECTAREA [L2]     VOLUME [L3] WET. PERIM. [L]   TOP WIDTH [L] SURF. AREA [L2]
 ---------- --------------- --------------- --------------- --------------- --------------- ---------------
          1   -3.000000        0.000000        0.000000        0.000000        0.000000        0.000000    
          2   -2.999999       0.1500000E-04   0.3000000E-03    15.00000        15.00000        300.0000    
          3   -1.699999        19.50002        390.0003        17.60000        15.00000        300.0000    
          4  -0.3999988        39.00002        780.0004        20.20000        15.00000        300.0000    
          5   0.9000013        58.50002        1170.000        22.80000        15.00000        300.0000    
          6    2.200001        78.00002        1560.000        25.40000        15.00000        300.0000    
          7    3.500001        97.50002        1950.000        28.00000        15.00000        300.0000    
          8    4.800002        117.0000        2340.000        30.60000        15.00000        300.0000    
          9    6.100002        136.5000        2730.001        33.20000        15.00000        300.0000    
         10    7.400002        156.0000        3120.001        35.80000        15.00000        300.0000    
         11    8.700002        175.5000        3510.001        38.40000        15.00000        300.0000    
         12   10.000000        195.0000        3900.000        41.00000        15.00000        300.0000    
         13    10.00000        195.0000        3900.000        41.00000        15.00000        300.0000    
         14    20.00000        345.0000        6900.000        41.00000        15.00000        300.0000    

 REACH   =     5
 LAYSTR  =     1
 LAYEND  =     1
          N   ELEVATION [L]  XSECTAREA [L2]     VOLUME [L3] WET. PERIM. [L]   TOP WIDTH [L] SURF. AREA [L2]
 ---------- --------------- --------------- --------------- --------------- --------------- ---------------
          1   -3.000000        0.000000        0.000000        0.000000        0.000000        0.000000    
          2   -2.999999       0.1500000E-04   0.3000000E-03    15.00000        15.00000        300.0000    
          3   -1.699999        19.50002        390.0003        17.60000        15.00000        300.0000    
          4  -0.3999988        39.00002        780.0004        20.20000        15.00000        300.0000    
          5   0.9000013        58.50002        1170.000        22.80000        15.00000        300.0000    
          6    2.200001        78.00002        1560.000        25.40000        15.00000        300.0000    
          7    3.500001        97.50002        1950.000        28.00000        15.00000        300.0000    
          8    4.800002        117.0000        2340.000        30.60000        15.00000        300.0000    
          9    6.100002        136.5000        2730.001        33.20000        15.00000        300.0000    
         10    7.400002        156.0000        3120.001        35.80000        15.00000        300.0000    
         11    8.700002        175.5000        3510.001        38.40000        15.00000        300.0000    
         12   10.000000        195.0000        3900.000        41.00000        15.00000        300.0000    
         13    10.00000        195.0000        3900.000        41.00000        15.00000        300.0000    
         14    20.00000        345.0000        6900.000        41.00000        15.00000        300.0000    

 REACH   =     6
 LAYSTR  =     1
 LAYEND  =     1
          N   ELEVATION [L]  XSECTAREA [L2]     VOLUME [L3] WET. PERIM. [L]   TOP WIDTH [L] SURF. AREA [L2]
 ---------- --------------- --------------- --------------- --------------- --------------- ---------------
          1   -3.000000        0.000000        0.000000        0.000000        0.000000        0.000000    
          2   -2.999999       0.1500000E-04   0.3000000E-03    15.00000        15.00000        300.0000    
          3   -1.699999        19.50002        390.0003        17.60000        15.00000        300.0000    
          4  -0.3999988        39.00002        780.0004        20.20000        15.00000        300.0000    
          5   0.9000013        58.50002        1170.000        22.80000        15.00000        300.0000    
          6    2.200001        78.00002        1560.000        25.40000        15.00000        300.0000    
          7    3.500001        97.50002        1950.000        28.00000        15.00000        300.0000    
          8    4.800002        117.0000        2340.000        30.60000        15.00000        300.0000    
          9    6.100002        136.5000        2730.001        33.20000        15.00000        300.0000    
         10    7.400002        156.0000        3120.001        35.80000        15.00000        300.0000    
         11    8.700002        175.5000        3510.001        38.40000        15.00000        300.0000    
         12   10.000000        195.0000        3900.000        41.00000        15.00000        300.0000    
         13    10.00000        195.0000        3900.000        41.00000        15.00000        300.0000    
         14    20.00000        345.0000        6900.000        41.00000        15.00000        300.0000    

 REACH   =     7
 LAYSTR  =     1
 LAYEND  =     1
          N   ELEVATION [L]  XSECTAREA [L2]     VOLUME [L3] WET. PERIM. [L]   TOP WIDTH [L] SURF. AREA [L2]
 ---------- --------------- --------------- --------------- --------------- --------------- ---------------
          1   -3.000000        0.000000        0.000000        0.000000        0.000000        0.000000    
          2   -2.999999       0.1500000E-04   0.3000000E-03    15.00000        15.00000        300.0000    
          3   -1.699999        19.50002        390.0003        17.60000        15.00000        300.0000    
          4  -0.3999988        39.00002        780.0004        20.20000        15.00000        300.0000    
          5   0.9000013        58.50002        1170.000        22.80000        15.00000        300.0000    
          6    2.200001        78.00002        1560.000        25.40000        15.00000        300.0000    
          7    3.500001        97.50002        1950.000        28.00000        15.00000        300.0000    
          8    4.800002        117.0000        2340.000        30.60000        15.00000        300.0000    
          9    6.100002        136.5000        2730.001        33.20000        15.00000        300.0000    
         10    7.400002        156.0000        3120.001        35.80000        15.00000        300.0000    
         11    8.700002        175.5000        3510.001        38.40000        15.00000        300.0000    
         12   10.000000        195.0000        3900.000        41.00000        15.00000        300.0000    
         13    10.00000        195.0000        3900.000        41.00000        15.00000        300.0000    
         14    20.00000        345.0000        6900.000        41.00000        15.00000        300.0000    

 REACH   =     8
 LAYSTR  =     1
 LAYEND  =     1
          N   ELEVATION [L]  XSECTAREA [L2]     VOLUME [L3] WET. PERIM. [L]   TOP WIDTH [L] SURF. AREA [L2]
 ---------- --------------- --------------- --------------- --------------- --------------- ---------------
          1   -3.000000        0.000000        0.000000        0.000000        0.000000        0.000000    
          2   -2.999999       0.1500000E-04   0.3000000E-03    15.00000        15.00000        300.0000    
          3   -1.699999        19.50002        390.0003        17.60000        15.00000        300.0000    
          4  -0.3999988        39.00002        780.0004        20.20000        15.00000        300.0000    
          5   0.9000013        58.50002        1170.000        22.80000        15.00000        300.0000    
          6    2.200001        78.00002        1560.000        25.40000        15.00000        300.0000    
          7    3.500001        97.50002        1950.000        28.00000        15.00000        300.0000    
          8    4.800002        117.0000        2340.000        30.60000        15.00000        300.0000    
          9    6.100002        136.5000        2730.001        33.20000        15.00000        300.0000    
         10    7.400002        156.0000        3120.001        35.80000        15.00000        300.0000    
         11    8.700002        175.5000        3510.001        38.40000        15.00000        300.0000    
         12   10.000000        195.0000        3900.000        41.00000        15.00000        300.0000    
         13    10.00000        195.0000        3900.000        41.00000        15.00000        300.0000    
         14    20.00000        345.0000        6900.000        41.00000        15.00000        300.0000    

 REACH   =     9
 LAYSTR  =     1
 LAYEND  =     1
          N   ELEVATION [L]  XSECTAREA [L2]     VOLUME [L3] WET. PERIM. [L]   TOP WIDTH [L] SURF. AREA [L2]
 ---------- --------------- --------------- --------------- --------------- --------------- ---------------
          1   -3.000000        0.000000        0.000000        0.000000        0.000000        0.000000    
          2   -2.999999       0.1500000E-04   0.3000000E-03    15.00000        15.00000        300.0000    
          3   -1.699999        19.50002        390.0003        17.60000        15.00000        300.0000    
          4  -0.3999988        39.00002        780.0004        20.20000        15.00000        300.0000    
          5   0.9000013        58.50002        1170.000        22.80000        15.00000        300.0000    
          6    2.200001        78.00002        1560.000        25.40000        15.00000        300.0000    
          7    3.500001        97.50002        1950.000        28.00000        15.00000        300.0000    
          8    4.800002        117.0000        2340.000        30.60000        15.00000        300.0000    
          9    6.100002        136.5000        2730.001        33.20000        15.00000        300.0000    
         10    7.400002        156.0000        3120.001        35.80000        15.00000        300.0000    
         11    8.700002        175.5000        3510.001        38.40000        15.00000        300.0000    
         12   10.000000        195.0000        3900.000        41.00000        15.00000        300.0000    
         13    10.00000        195.0000        3900.000        41.00000        15.00000        300.0000    
         14    20.00000        345.0000        6900.000        41.00000        15.00000        300.0000    

 REACH   =    10
 LAYSTR  =     1
 LAYEND  =     1
          N   ELEVATION [L]  XSECTAREA [L2]     VOLUME [L3] WET. PERIM. [L]   TOP WIDTH [L] SURF. AREA [L2]
 ---------- --------------- --------------- --------------- --------------- --------------- ---------------
          1   -3.000000        0.000000        0.000000        0.000000        0.000000        0.000000    
          2   -2.999999       0.1500000E-04   0.3000000E-03    15.00000        15.00000        300.0000    
          3   -1.699999        19.50002        390.0003        17.60000        15.00000        300.0000    
          4  -0.3999988        39.00002        780.0004        20.20000        15.00000        300.0000    
          5   0.9000013        58.50002        1170.000        22.80000        15.00000        300.0000    
          6    2.200001        78.00002        1560.000        25.40000        15.00000        300.0000    
          7    3.500001        97.50002        1950.000        28.00000        15.00000        300.0000    
          8    4.800002        117.0000        2340.000        30.60000        15.00000        300.0000    
          9    6.100002        136.5000        2730.001        33.20000        15.00000        300.0000    
         10    7.400002        156.0000        3120.001        35.80000        15.00000        300.0000    
         11    8.700002        175.5000        3510.001        38.40000        15.00000        300.0000    
         12   10.000000        195.0000        3900.000        41.00000        15.00000        300.0000    
         13    10.00000        195.0000        3900.000        41.00000        15.00000        300.0000    
         14    20.00000        345.0000        6900.000        41.00000        15.00000        300.0000    

 REACH   =    11
 LAYSTR  =     1
 LAYEND  =     1
          N   ELEVATION [L]  XSECTAREA [L2]     VOLUME [L3] WET. PERIM. [L]   TOP WIDTH [L] SURF. AREA [L2]
 ---------- --------------- --------------- --------------- --------------- --------------- ---------------
          1   -3.000000        0.000000        0.000000        0.000000        0.000000        0.000000    
          2   -2.999999       0.1500000E-04   0.3000000E-03    15.00000        15.00000        300.0000    
          3   -1.699999        19.50002        390.0003        17.60000        15.00000        300.0000    
          4  -0.3999988        39.00002        780.0004        20.20000        15.00000        300.0000    
          5   0.9000013        58.50002        1170.000        22.80000        15.00000        300.0000    
          6    2.200001        78.00002        1560.000        25.40000        15.00000        300.0000    
          7    3.500001        97.50002        1950.000        28.00000        15.00000        300.0000    
          8    4.800002        117.0000        2340.000        30.60000        15.00000        300.0000    
          9    6.100002        136.5000        2730.001        33.20000        15.00000        300.0000    
         10    7.400002        156.0000        3120.001        35.80000        15.00000        300.0000    
[...]
    16 CALLS TO PCG ROUTINE FOR TIME STEP 230 IN STRESS PERIOD    2
     1 TOTAL ITERATIONS
    17 CALLS TO PCG ROUTINE FOR TIME STEP 230 IN STRESS PERIOD    2
     1 TOTAL ITERATIONS
    18 CALLS TO PCG ROUTINE FOR TIME STEP 230 IN STRESS PERIOD    2
     1 TOTAL ITERATIONS
    19 CALLS TO PCG ROUTINE FOR TIME STEP 230 IN STRESS PERIOD    2
     1 TOTAL ITERATIONS
    20 CALLS TO PCG ROUTINE FOR TIME STEP 230 IN STRESS PERIOD    2
     1 TOTAL ITERATIONS
    21 CALLS TO PCG ROUTINE FOR TIME STEP 230 IN STRESS PERIOD    2
     1 TOTAL ITERATIONS
    22 CALLS TO PCG ROUTINE FOR TIME STEP 230 IN STRESS PERIOD    2
     1 TOTAL ITERATIONS
    23 CALLS TO PCG ROUTINE FOR TIME STEP 230 IN STRESS PERIOD    2
     1 TOTAL ITERATIONS

 HEAD/DRAWDOWN PRINTOUT FLAG = 1     TOTAL BUDGET PRINTOUT FLAG = 0
 CELL-BY-CELL FLOW TERM FLAG = 0

 OUTPUT FLAGS FOR ALL LAYERS ARE THE SAME:
   HEAD    DRAWDOWN  HEAD  DRAWDOWN
 PRINTOUT  PRINTOUT  SAVE    SAVE
 ----------------------------------
     0         0       1       0

 -------------------------------------------------------------------------------
                             SWR1 OUTPUT PRINT TIMES
                        STRESS PERIOD    2   TIME STEP   230
 --------------- --------------- --------------- --------------- ---------------
      1.9583                                                                    
 -------------------------------------------------------------------------------

 HEAD WILL BE SAVED ON UNIT   51 AT END OF TIME STEP  230, STRESS PERIOD    2
 
 SOLVING FOR HEAD 
    12 CALLS TO PCG ROUTINE FOR TIME STEP 231 IN STRESS PERIOD    2
    70 TOTAL ITERATIONS
    14 CALLS TO PCG ROUTINE FOR TIME STEP 231 IN STRESS PERIOD    2
     3 TOTAL ITERATIONS
    15 CALLS TO PCG ROUTINE FOR TIME STEP 231 IN STRESS PERIOD    2
     1 TOTAL ITERATIONS
    16 CALLS TO PCG ROUTINE FOR TIME STEP 231 IN STRESS PERIOD    2
     1 TOTAL ITERATIONS
    17 CALLS TO PCG ROUTINE FOR TIME STEP 231 IN STRESS PERIOD    2
     1 TOTAL ITERATIONS
    18 CALLS TO PCG ROUTINE FOR TIME STEP 231 IN STRESS PERIOD    2
     1 TOTAL ITERATIONS
    19 CALLS TO PCG ROUTINE FOR TIME STEP 231 IN STRESS PERIOD    2
     1 TOTAL ITERATIONS
    20 CALLS TO PCG ROUTINE FOR TIME STEP 231 IN STRESS PERIOD    2
     1 TOTAL ITERATIONS

 HEAD/DRAWDOWN PRINTOUT FLAG = 1     TOTAL BUDGET PRINTOUT FLAG = 0
 CELL-BY-CELL FLOW TERM FLAG = 0

 OUTPUT FLAGS FOR ALL LAYERS ARE THE SAME:
   HEAD    DRAWDOWN  HEAD  DRAWDOWN
 PRINTOUT  PRINTOUT  SAVE    SAVE
 ----------------------------------
     0         0       1       0

 -------------------------------------------------------------------------------
                             SWR1 OUTPUT PRINT TIMES
                        STRESS PERIOD    2   TIME STEP   231
 --------------- --------------- --------------- --------------- ---------------
      1.9625                                                                    
 -------------------------------------------------------------------------------

 HEAD WILL BE SAVED ON UNIT   51 AT END OF TIME STEP  231, STRESS PERIOD    2
 
 SOLVING FOR HEAD 
    13 CALLS TO PCG ROUTINE FOR TIME STEP 232 IN STRESS PERIOD    2
    86 TOTAL ITERATIONS
    15 CALLS TO PCG ROUTINE FOR TIME STEP 232 IN STRESS PERIOD    2
     3 TOTAL ITERATIONS

 HEAD/DRAWDOWN PRINTOUT FLAG = 1     TOTAL BUDGET PRINTOUT FLAG = 0
 CELL-BY-CELL FLOW TERM FLAG = 0

 OUTPUT FLAGS FOR ALL LAYERS ARE THE SAME:
   HEAD    DRAWDOWN  HEAD  DRAWDOWN
 PRINTOUT  PRINTOUT  SAVE    SAVE
 ----------------------------------
     0         0       1       0

 -------------------------------------------------------------------------------
                             SWR1 OUTPUT PRINT TIMES
                        STRESS PERIOD    2   TIME STEP   232
 --------------- --------------- --------------- --------------- ---------------
      1.9667                                                                    
 -------------------------------------------------------------------------------

 HEAD WILL BE SAVED ON UNIT   51 AT END OF TIME STEP  232, STRESS PERIOD    2
 
 SOLVING FOR HEAD 
    13 CALLS TO PCG ROUTINE FOR TIME STEP 233 IN STRESS PERIOD    2
    86 TOTAL ITERATIONS
    15 CALLS TO PCG ROUTINE FOR TIME STEP 233 IN STRESS PERIOD    2
     3 TOTAL ITERATIONS

 HEAD/DRAWDOWN PRINTOUT FLAG = 1     TOTAL BUDGET PRINTOUT FLAG = 0
 CELL-BY-CELL FLOW TERM FLAG = 0

 OUTPUT FLAGS FOR ALL LAYERS ARE THE SAME:
   HEAD    DRAWDOWN  HEAD  DRAWDOWN
 PRINTOUT  PRINTOUT  SAVE    SAVE
 ----------------------------------
     0         0       1       0

 -------------------------------------------------------------------------------
                             SWR1 OUTPUT PRINT TIMES
                        STRESS PERIOD    2   TIME STEP   233
 --------------- --------------- --------------- --------------- ---------------
      1.9708                                                                    
 -------------------------------------------------------------------------------

 HEAD WILL BE SAVED ON UNIT   51 AT END OF TIME STEP  233, STRESS PERIOD    2
 
 SOLVING FOR HEAD 
    13 CALLS TO PCG ROUTINE FOR TIME STEP 234 IN STRESS PERIOD    2
    77 TOTAL ITERATIONS
    14 CALLS TO PCG ROUTINE FOR TIME STEP 234 IN STRESS PERIOD    2
     1 TOTAL ITERATIONS
    15 CALLS TO PCG ROUTINE FOR TIME STEP 234 IN STRESS PERIOD    2
     1 TOTAL ITERATIONS
    16 CALLS TO PCG ROUTINE FOR TIME STEP 234 IN STRESS PERIOD    2
     1 TOTAL ITERATIONS
    17 CALLS TO PCG ROUTINE FOR TIME STEP 234 IN STRESS PERIOD    2
     1 TOTAL ITERATIONS
    18 CALLS TO PCG ROUTINE FOR TIME STEP 234 IN STRESS PERIOD    2
     1 TOTAL ITERATIONS
    19 CALLS TO PCG ROUTINE FOR TIME STEP 234 IN STRESS PERIOD    2
     1 TOTAL ITERATIONS

 HEAD/DRAWDOWN PRINTOUT FLAG = 1     TOTAL BUDGET PRINTOUT FLAG = 0
 CELL-BY-CELL FLOW TERM FLAG = 0

 OUTPUT FLAGS FOR ALL LAYERS ARE THE SAME:
   HEAD    DRAWDOWN  HEAD  DRAWDOWN
 PRINTOUT  PRINTOUT  SAVE    SAVE
 ----------------------------------
     0         0       1       0

 -------------------------------------------------------------------------------
                             SWR1 OUTPUT PRINT TIMES
                        STRESS PERIOD    2   TIME STEP   234
 --------------- --------------- --------------- --------------- ---------------
      1.9750                                                                    
 -------------------------------------------------------------------------------

 HEAD WILL BE SAVED ON UNIT   51 AT END OF TIME STEP  234, STRESS PERIOD    2
 
 SOLVING FOR HEAD 
    13 CALLS TO PCG ROUTINE FOR TIME STEP 235 IN STRESS PERIOD    2
    67 TOTAL ITERATIONS
    14 CALLS TO PCG ROUTINE FOR TIME STEP 235 IN STRESS PERIOD    2
     1 TOTAL ITERATIONS

 HEAD/DRAWDOWN PRINTOUT FLAG = 1     TOTAL BUDGET PRINTOUT FLAG = 0
 CELL-BY-CELL FLOW TERM FLAG = 0

 OUTPUT FLAGS FOR ALL LAYERS ARE THE SAME:
   HEAD    DRAWDOWN  HEAD  DRAWDOWN
 PRINTOUT  PRINTOUT  SAVE    SAVE
 ----------------------------------
     0         0       1       0

 -------------------------------------------------------------------------------
                             SWR1 OUTPUT PRINT TIMES
                        STRESS PERIOD    2   TIME STEP   235
 --------------- --------------- --------------- --------------- ---------------
      1.9792                                                                    
 -------------------------------------------------------------------------------

 HEAD WILL BE SAVED ON UNIT   51 AT END OF TIME STEP  235, STRESS PERIOD    2
 
 SOLVING FOR HEAD 
    14 CALLS TO PCG ROUTINE FOR TIME STEP 236 IN STRESS PERIOD    2
    80 TOTAL ITERATIONS

 HEAD/DRAWDOWN PRINTOUT FLAG = 1     TOTAL BUDGET PRINTOUT FLAG = 0
 CELL-BY-CELL FLOW TERM FLAG = 0

 OUTPUT FLAGS FOR ALL LAYERS ARE THE SAME:
   HEAD    DRAWDOWN  HEAD  DRAWDOWN
 PRINTOUT  PRINTOUT  SAVE    SAVE
 ----------------------------------
     0         0       1       0

 -------------------------------------------------------------------------------
                             SWR1 OUTPUT PRINT TIMES
                        STRESS PERIOD    2   TIME STEP   236
 --------------- --------------- --------------- --------------- ---------------
      1.9833                                                                    
 -------------------------------------------------------------------------------

 HEAD WILL BE SAVED ON UNIT   51 AT END OF TIME STEP  236, STRESS PERIOD    2
 
 SOLVING FOR HEAD 
    13 CALLS TO PCG ROUTINE FOR TIME STEP 237 IN STRESS PERIOD    2
    86 TOTAL ITERATIONS

 HEAD/DRAWDOWN PRINTOUT FLAG = 1     TOTAL BUDGET PRINTOUT FLAG = 0
 CELL-BY-CELL FLOW TERM FLAG = 0

 OUTPUT FLAGS FOR ALL LAYERS ARE THE SAME:
   HEAD    DRAWDOWN  HEAD  DRAWDOWN
 PRINTOUT  PRINTOUT  SAVE    SAVE
 ----------------------------------
     0         0       1       0

 -------------------------------------------------------------------------------
                             SWR1 OUTPUT PRINT TIMES
                        STRESS PERIOD    2   TIME STEP   237
 --------------- --------------- --------------- --------------- ---------------
      1.9875                                                                    
 -------------------------------------------------------------------------------

 HEAD WILL BE SAVED ON UNIT   51 AT END OF TIME STEP  237, STRESS PERIOD    2
 
 SOLVING FOR HEAD 
    13 CALLS TO PCG ROUTINE FOR TIME STEP 238 IN STRESS PERIOD    2
    78 TOTAL ITERATIONS

 HEAD/DRAWDOWN PRINTOUT FLAG = 1     TOTAL BUDGET PRINTOUT FLAG = 0
 CELL-BY-CELL FLOW TERM FLAG = 0

 OUTPUT FLAGS FOR ALL LAYERS ARE THE SAME:
   HEAD    DRAWDOWN  HEAD  DRAWDOWN
 PRINTOUT  PRINTOUT  SAVE    SAVE
 ----------------------------------
     0         0       1       0

 -------------------------------------------------------------------------------
                             SWR1 OUTPUT PRINT TIMES
                        STRESS PERIOD    2   TIME STEP   238
 --------------- --------------- --------------- --------------- ---------------
      1.9917                                                                    
 -------------------------------------------------------------------------------

 HEAD WILL BE SAVED ON UNIT   51 AT END OF TIME STEP  238, STRESS PERIOD    2
 
 SOLVING FOR HEAD 
    12 CALLS TO PCG ROUTINE FOR TIME STEP 239 IN STRESS PERIOD    2
    79 TOTAL ITERATIONS
    14 CALLS TO PCG ROUTINE FOR TIME STEP 239 IN STRESS PERIOD    2
     4 TOTAL ITERATIONS
    15 CALLS TO PCG ROUTINE FOR TIME STEP 239 IN STRESS PERIOD    2
     1 TOTAL ITERATIONS

 HEAD/DRAWDOWN PRINTOUT FLAG = 1     TOTAL BUDGET PRINTOUT FLAG = 0
 CELL-BY-CELL FLOW TERM FLAG = 0

 OUTPUT FLAGS FOR ALL LAYERS ARE THE SAME:
   HEAD    DRAWDOWN  HEAD  DRAWDOWN
 PRINTOUT  PRINTOUT  SAVE    SAVE
 ----------------------------------
     0         0       1       0

 -------------------------------------------------------------------------------
                             SWR1 OUTPUT PRINT TIMES
                        STRESS PERIOD    2   TIME STEP   239
 --------------- --------------- --------------- --------------- ---------------
      1.9958                                                                    
 -------------------------------------------------------------------------------

 HEAD WILL BE SAVED ON UNIT   51 AT END OF TIME STEP  239, STRESS PERIOD    2
 
 SOLVING FOR HEAD 
    13 CALLS TO PCG ROUTINE FOR TIME STEP 240 IN STRESS PERIOD    2
    78 TOTAL ITERATIONS
    14 CALLS TO PCG ROUTINE FOR TIME STEP 240 IN STRESS PERIOD    2
     1 TOTAL ITERATIONS
    15 CALLS TO PCG ROUTINE FOR TIME STEP 240 IN STRESS PERIOD    2
     1 TOTAL ITERATIONS
    16 CALLS TO PCG ROUTINE FOR TIME STEP 240 IN STRESS PERIOD    2
     1 TOTAL ITERATIONS
    17 CALLS TO PCG ROUTINE FOR TIME STEP 240 IN STRESS PERIOD    2
     1 TOTAL ITERATIONS
    18 CALLS TO PCG ROUTINE FOR TIME STEP 240 IN STRESS PERIOD    2
     1 TOTAL ITERATIONS
    19 CALLS TO PCG ROUTINE FOR TIME STEP 240 IN STRESS PERIOD    2
     1 TOTAL ITERATIONS
    20 CALLS TO PCG ROUTINE FOR TIME STEP 240 IN STRESS PERIOD    2
     1 TOTAL ITERATIONS
    21 CALLS TO PCG ROUTINE FOR TIME STEP 240 IN STRESS PERIOD    2
     1 TOTAL ITERATIONS
    22 CALLS TO PCG ROUTINE FOR TIME STEP 240 IN STRESS PERIOD    2
     1 TOTAL ITERATIONS
    23 CALLS TO PCG ROUTINE FOR TIME STEP 240 IN STRESS PERIOD    2
     1 TOTAL ITERATIONS
    24 CALLS TO PCG ROUTINE FOR TIME STEP 240 IN STRESS PERIOD    2
     1 TOTAL ITERATIONS

 HEAD/DRAWDOWN PRINTOUT FLAG = 1     TOTAL BUDGET PRINTOUT FLAG = 0
 CELL-BY-CELL FLOW TERM FLAG = 0

 OUTPUT FLAGS FOR ALL LAYERS ARE THE SAME:
   HEAD    DRAWDOWN  HEAD  DRAWDOWN
 PRINTOUT  PRINTOUT  SAVE    SAVE
 ----------------------------------
     0         0       1       0

 MAXIMUM RESIDUAL FOR EACH SWR TIMESTEP (NEG. ISWRDT VALUES INDICATE REL. TOLR EXCEEDED)
 ISWRDT,ITER.,MAX.RESID., LOC. ISWRDT,ITER.,MAX.RESID., LOC. ISWRDT,ITER.,MAX.RESID., LOC.
 -----------------------------------------------------------------------------------------
 (    1,    2, 0.192E-04,    1)
 -----------------------------------------------------------------------------------------

 SWR TIME STEP SUMMARY
 ISWRDT,     SWRDT ISWRDT,     SWRDT ISWRDT,     SWRDT ISWRDT,     SWRDT ISWRDT,     SWRDT 
 -----------------------------------------------------------------------------------------
 (    1, 0.417E-02)
 -----------------------------------------------------------------------------------------

 QAQFLOW CONVERGENCE CRITERIA
 MAX. REACH      MAX. REACH ALL REACHES    
 DIFFERENCE      LOCATION   TOTAL DIFF.    
 ------------------------------------------
    9.247739E-03         16     840510.    

   PERCENT DISCREPANCY =     2139.97    
 ------------------------------------------

 -------------------------------------------------------------------------------
                             SWR1 OUTPUT PRINT TIMES
                        STRESS PERIOD    2   TIME STEP   240
 --------------- --------------- --------------- --------------- ---------------
      2.0000                                                                    
 -------------------------------------------------------------------------------


                    VOLUMETRIC SURFACE WATER BUDGET FOR ENTIRE MODEL
                    AT END OF TIME STEP   240 IN STRESS PERIOD    2
  -----------------------------------------------------------------------------------

        CUMULATIVE VOLUMES      L**3       RATES FOR THIS TIME STEP      L**3/T
        ------------------                 ------------------------

              IN:                                      IN:
              ---                                      ---
          LATERAL FLOW  =           0.0000         LATERAL FLOW  =           0.0000
         UNSAT. RUNOFF  =           0.0000        UNSAT. RUNOFF  =           0.0000
              RAINFALL  =           0.0000             RAINFALL  =           0.0000
           EVAPORATION  =           0.0000          EVAPORATION  =           0.0000
         REACH-AQ FLOW  =     1757931.8750        REACH-AQ FLOW  =      899164.4375
         EXTERNAL FLOW  =           0.0000        EXTERNAL FLOW  =           0.0000
         BOUNDARY FLOW  =     1629357.2500        BOUNDARY FLOW  =      792492.6250
         CONSTANT FLOW  =       24801.6074        CONSTANT FLOW  =       35666.0742
               STORAGE  =       58377.7188              STORAGE  =           0.0000

               TOTAL IN =     3470468.2500              TOTAL IN =     1727323.1250

             OUT:                                     OUT:
             ----                                     ----
          LATERAL FLOW  =           0.0000         LATERAL FLOW  =           0.0000
         UNSAT. RUNOFF  =           0.0000        UNSAT. RUNOFF  =           0.0000
              RAINFALL  =           0.0000             RAINFALL  =           0.0000
           EVAPORATION  =           0.0000          EVAPORATION  =           0.0000
         REACH-AQ FLOW  =       17606.0312        REACH-AQ FLOW  =       19899.3105
         EXTERNAL FLOW  =           0.0000        EXTERNAL FLOW  =           0.0000
         BOUNDARY FLOW  =     3364244.7500        BOUNDARY FLOW  =     1637340.1250
         CONSTANT FLOW  =       42501.1523        CONSTANT FLOW  =           0.0000
               STORAGE  =       46117.5898              STORAGE  =       70083.6250

              TOTAL OUT =     3470469.5000             TOTAL OUT =     1727323.0000

               IN - OUT =          -1.2500              IN - OUT =           0.1250

    PERCENT DISCREPANCY =          -0.00     PERCENT DISCREPANCY =           0.00


                   DISCREPANCY BETWEEN MODFLOW AND SWR1 AQUIFER-REACH
                               TERMS FOR THE ENTIRE MODEL               
  -----------------------------------------------------------------------------------
       CUMULATIVE VOLUMES       L**3        RATES FOR THIS TIME STEP       L**3/T
       ------------------                   ------------------------
                MODFLOW =     -160700.1875                 MODFLOW =      -38754.8398
                   SWR1 =     -160705.5000                    SWR1 =      -38754.6875
    PERCENT DISCREPANCY =           0.01       PERCENT DISCREPANCY =          -0.00
  SWR1 CONSTANT MODFLOW =    -1579620.2500   SWR1 CONSTANT MODFLOW =     -840510.4375
  SWR1 INACTIVE MODFLOW =           0.0000   SWR1 INACTIVE MODFLOW =           0.0000
  -----------------------------------------------------------------------------------
    PERCENT DISCREPANCY = 100 x ((SWRIN-MFIN) - (SWROUT-MFOUT)) / (MFIN+MFOUT) / 2




 HEAD WILL BE SAVED ON UNIT   51 AT END OF TIME STEP  240, STRESS PERIOD    2
1
  VOLUMETRIC BUDGET FOR ENTIRE MODEL AT END OF TIME STEP  240, STRESS PERIOD   2
  ------------------------------------------------------------------------------

     CUMULATIVE VOLUMES      L**3       RATES FOR THIS TIME STEP      L**3/T
     ------------------                 ------------------------

           IN:                                      IN:
           ---                                      ---
             STORAGE =       69916.3203               STORAGE =        8108.3101
       CONSTANT HEAD =      126796.9297         CONSTANT HEAD =       70446.9375
         SWR LEAKAGE =       17605.5566           SWR LEAKAGE =       19899.2344
            SWR GWET =           0.0000              SWR GWET =           0.0000

            TOTAL IN =      214318.8125              TOTAL IN =       98454.4844

          OUT:                                     OUT:
          ----                                     ----
             STORAGE =       35998.3828               STORAGE =       39792.7656
       CONSTANT HEAD =           0.0000         CONSTANT HEAD =           0.0000
         SWR LEAKAGE =      178305.7500           SWR LEAKAGE =       58654.0742
            SWR GWET =           0.0000              SWR GWET =           0.0000

           TOTAL OUT =      214304.1250             TOTAL OUT =       98446.8438

            IN - OUT =          14.6875              IN - OUT =           7.6406

 PERCENT DISCREPANCY =           0.01     PERCENT DISCREPANCY =           0.01






         TIME SUMMARY AT END OF TIME STEP  240 IN STRESS PERIOD    2
                    SECONDS     MINUTES      HOURS       DAYS        YEARS
                    -----------------------------------------------------------
   TIME STEP LENGTH  360.00      6.0000     1.00000E-01 4.16667E-03 1.14077E-05
 STRESS PERIOD TIME  86400.      1440.0      24.000      1.0000     2.73785E-03
         TOTAL TIME 1.72801E+05  2880.0      48.000      2.0000     5.47574E-03
1

 Run end date and time (yyyy/mm/dd hh:mm:ss): 2014/06/11 15:34:13
 Elapsed run time: 11.941 Seconds



 SUMMARY OF SWR1 PROCESS EXECUTION TIME
 TOTAL SWR1 EXECUTION TIME:     9.359344     SECONDS
