                                  MODFLOW-2005     
      U.S. GEOLOGICAL SURVEY MODULAR FINITE-DIFFERENCE GROUND-WATER FLOW MODEL
                            VERSION 1.11.00 8/8/2013

 LIST FILE: dewater_pest.list
                         UNIT    2

 OPENING dewater_pest.dis
 FILE TYPE:DIS   UNIT   11   STATUS:OLD    
 FORMAT:FORMATTED              ACCESS:SEQUENTIAL          

 OPENING dewater_pest.bas
 FILE TYPE:BAS6   UNIT   13   STATUS:OLD    
 FORMAT:FORMATTED              ACCESS:SEQUENTIAL          

 OPENING dewater_pest.bcf
 FILE TYPE:BCF6   UNIT   15   STATUS:OLD    
 FORMAT:FORMATTED              ACCESS:SEQUENTIAL          

 OPENING dewater_pest.pcg
 FILE TYPE:PCG   UNIT   27   STATUS:OLD    
 FORMAT:FORMATTED              ACCESS:SEQUENTIAL          

 OPENING dewater_pest.wel
 FILE TYPE:WEL   UNIT   20   STATUS:OLD    
 FORMAT:FORMATTED              ACCESS:SEQUENTIAL          

 OPENING dewater_pest.oc
 FILE TYPE:OC   UNIT   14   STATUS:OLD    
 FORMAT:FORMATTED              ACCESS:SEQUENTIAL          

 OPENING dewater_pest.hds
 FILE TYPE:DATA   UNIT   51   STATUS:REPLACE
 FORMAT:FORMATTED              ACCESS:SEQUENTIAL          

 OPENING dewater_pest.ddn
 FILE TYPE:DATA(BINARY)   UNIT   52   STATUS:REPLACE
 FORMAT:UNFORMATTED            ACCESS:STREAM              

 OPENING dewater_pest.cbc
 FILE TYPE:DATA(BINARY)   UNIT   53   STATUS:REPLACE
 FORMAT:UNFORMATTED            ACCESS:STREAM              

 BAS -- BASIC PACKAGE, VERSION 7, 5/2/2005 INPUT READ FROM UNIT   13

 MODFLOW was compiled using mixed precision
 Precision of REAL variables:           6
 Precision of DOUBLE PRECISION variables:          15

 DISCRETIZATION INPUT DATA READ FROM UNIT   11
 # Discretization file for MODFLOW, generated by Flopy.
    1 LAYERS        20 ROWS        30 COLUMNS
    1 STRESS PERIOD(S) IN SIMULATION
 MODEL TIME UNIT IS DAYS
 MODEL LENGTH UNIT IS UNDEFINED
  Confining bed flag for each layer:
   0

 OPENING FILE ON UNIT   99:
 ref/delr.ref                                                                                                                                                                                            



                               DELR
 READING ON UNIT   99 WITH FORMAT: (30E15.6)           

 OPENING FILE ON UNIT   99:
 ref/delc.ref                                                                                                                                                                                            



                               DELC
 READING ON UNIT   99 WITH FORMAT: (20E15.6)           

 OPENING FILE ON UNIT   99:
 ref/model_top.ref                                                                                                                                                                                       



           TOP ELEVATION OF LAYER 1
 READING ON UNIT   99 WITH FORMAT: (FREE)              

 OPENING FILE ON UNIT   99:
 ref/botm_layer_1.ref                                                                                                                                                                                    



             MODEL LAYER BOTTOM EL. FOR LAYER   1
 READING ON UNIT   99 WITH FORMAT: (FREE)              


 STRESS PERIOD     LENGTH       TIME STEPS     MULTIPLIER FOR DELT    SS FLAG
 ----------------------------------------------------------------------------
        1         1000.000          1                    1.000         SS

 STEADY-STATE SIMULATION




 # Basic package file for MODFLOW, generated by Flopy.                           
 THE FREE FORMAT OPTION HAS BEEN SELECTED

 OPENING FILE ON UNIT   99:
 ref/ibound_layer_1.ref                                                                                                                                                                                  



                     BOUNDARY ARRAY FOR LAYER   1
 READING ON UNIT   99 WITH FORMAT: (FREE)              

 AQUIFER HEAD WILL BE SET TO   0.0000     AT ALL NO-FLOW NODES (IBOUND=0).

 OPENING FILE ON UNIT   99:
 strt_layer_1.ref                                                                                                                                                                                        



                       INITIAL HEAD FOR LAYER   1
 READING ON UNIT   99 WITH FORMAT: (FREE)              
 # Output control package file for MODFLOW, generated by Flopy.

 OUTPUT CONTROL IS SPECIFIED ONLY AT TIME STEPS FOR WHICH OUTPUT IS DESIRED
 HEADS WILL BE SAVED WITH FORMAT: (30E15.6)           
 SAVED HEADS WILL BE LABELED
 COMPACT CELL-BY-CELL BUDGET FILES WILL BE WRITTEN
 AUXILIARY DATA WILL BE SAVED IN CELL-BY-CELL BUDGET FILES
 HEAD PRINT FORMAT CODE IS   0    DRAWDOWN PRINT FORMAT CODE IS   0
 HEADS WILL BE SAVED ON UNIT   51    DRAWDOWNS WILL BE SAVED ON UNIT   52

 BCF -- BLOCK-CENTERED FLOW PACKAGE, VERSION 7, 5/2/2005
         INPUT READ FROM UNIT 15
 STEADY-STATE SIMULATION
 HEAD AT CELLS THAT CONVERT TO DRY=   0.0000    
 WETTING CAPABILITY IS ACTIVE
 WETTING FACTOR=   1.00000     WETTING ITERATION INTERVAL=   1
 FLAG THAT SPECIFIES THE EQUATION TO USE FOR HEAD AT WETTED CELLS=   0
      LAYER  LAYER-TYPE CODE     INTERBLOCK T
      --------------------------------------------
         1            0          0 -- HARMONIC    

 OPENING FILE ON UNIT   99:
 ref/anisotropy_factor.ref                                                                                                                                                                               



           COLUMN TO ROW ANISOTROPY
 READING ON UNIT   99 WITH FORMAT: (1E15.6)            

 OPENING FILE ON UNIT   99:
 transmissivity_layer_1.ref                                                                                                                                                                              



               TRANSMIS. ALONG ROWS FOR LAYER   1
 READING ON UNIT   99 WITH FORMAT: (FREE)              

 WEL -- WELL PACKAGE, VERSION 7, 5/2/2005 INPUT READ FROM UNIT   20
 # Well file for MODFLOW, generated by Flopy.
 No named parameters
 MAXIMUM OF      7 ACTIVE WELLS AT ONE TIME


     0 Well parameters

 PCG -- CONJUGATE-GRADIENT SOLUTION PACKAGE, VERSION 7, 5/2/2005
 # PCG for MODFLOW, generated by Flopy.
 MAXIMUM OF     50 CALLS OF SOLUTION ROUTINE
 MAXIMUM OF      5 INTERNAL ITERATIONS PER CALL TO SOLUTION ROUTINE
 MATRIX PRECONDITIONING TYPE :    1



                                    SOLUTION BY THE CONJUGATE-GRADIENT METHOD
                                   -------------------------------------------
                    MAXIMUM NUMBER OF CALLS TO PCG ROUTINE =       50
                        MAXIMUM ITERATIONS PER CALL TO PCG =        5
                               MATRIX PRECONDITIONING TYPE =        1
        RELAXATION FACTOR (ONLY USED WITH PRECOND. TYPE 1) =    0.10000E+01
 PARAMETER OF POLYNOMIAL PRECOND. = 2 (2) OR IS CALCULATED :        0
                         HEAD CHANGE CRITERION FOR CLOSURE =    0.10000E-07
                     RESIDUAL CHANGE CRITERION FOR CLOSURE =    0.10000E+01
            PCG HEAD AND RESIDUAL CHANGE PRINTOUT INTERVAL =        1
     PRINTING FROM SOLVER IS LIMITED(1) OR SUPPRESSED (>1) =        0
                            STEADY-STATE DAMPING PARAMETER =    0.10000E+01
                               TRANSIENT DAMPING PARAMETER =    0.10000E+01
1
                            STRESS PERIOD NO.    1, LENGTH =   1000.000    
                            -----------------------------------------------

                              NUMBER OF TIME STEPS =     1

                               MULTIPLIER FOR DELT =     1.000

                            INITIAL TIME STEP SIZE =   1000.000    

 OPENING FILE ON UNIT   99:
 WEL_0000.dat                                                                                                                                                                                            

 WELL NO.  LAYER   ROW   COL   STRESS RATE         
 --------------------------------------------------
      1      1      7     14      -1077.    
      2      1      7     16      -78.24    
      3      1      8     15      -0.000    
      4      1      9     14      -768.9    
      5      1      9     16      -0.000    
      6      1     11     17      -0.000    
      7      1     13     16      -941.1    

      7 WELLS

 SOLVING FOR HEAD 


    10 CALLS TO PCG ROUTINE FOR TIME STEP   1 IN STRESS PERIOD    1
    45 TOTAL ITERATIONS

 MAXIMUM HEAD CHANGE FOR EACH ITERATION (1 INDICATES THE FIRST INNER ITERATION):

    HEAD CHANGE    HEAD CHANGE    HEAD CHANGE    HEAD CHANGE    HEAD CHANGE 
   LAYER,ROW,COL  LAYER,ROW,COL  LAYER,ROW,COL  LAYER,ROW,COL  LAYER,ROW,COL
 ---------------------------------------------------------------------------
  1  -25.73      0  -13.14      0   4.910      0   3.087      0   1.698    
   (  1,  7, 14)  (  1,  2, 18)  (  1,  1, 10)  (  1,  1, 10)  (  1,  1, 13)
  1 -0.8140      0  0.4112      0  0.2318      0  0.2885      0  0.1261    
   (  1,  4, 16)  (  1, 20,  9)  (  1, 19, 25)  (  1,  1, 11)  (  1,  5, 12)
  1 -0.7620E-01  0 -0.5482E-01  0  0.3596E-01  0  0.1033E-01  0  0.8289E-02
   (  1,  7, 14)  (  1,  6, 22)  (  1,  1, 10)  (  1,  3, 24)  (  1,  3, 15)
  1 -0.4066E-02  0  0.2816E-02  0  0.1495E-02  0  0.1638E-02  0  0.5420E-03
   (  1,  4, 16)  (  1,  5, 14)  (  1,  7,  9)  (  1,  2, 12)  (  1,  5, 12)
  1 -0.4892E-03  0 -0.3730E-03  0  0.2206E-03  0  0.7493E-04  0  0.5508E-04
   (  1,  9, 16)  (  1,  7, 22)  (  1,  2, 11)  (  1,  6,  8)  (  1,  1, 13)
  1 -0.2762E-04  0  0.1913E-04  0  0.1116E-04  0  0.9931E-05  0  0.3874E-05
   (  1,  5, 17)  (  1,  5, 14)  (  1,  7,  9)  (  1,  2, 12)  (  1,  5, 12)
  1 -0.3311E-05  0 -0.2544E-05  0  0.1516E-05  0  0.4981E-06  0  0.3761E-06
   (  1,  9, 16)  (  1,  7, 22)  (  1,  2, 11)  (  1,  6,  8)  (  1,  1, 13)
  1 -0.1843E-06  0  0.1341E-06  0  0.7942E-07  0  0.6624E-07  0  0.2648E-07
   (  1,  5, 17)  (  1,  5, 14)  (  1,  7, 10)  (  1,  2, 12)  (  1,  4, 11)
  1 -0.2279E-07  0 -0.1766E-07  0  0.1050E-07  0  0.3389E-08  1  0.2179E-08
   (  1,  9, 16)  (  1,  7, 22)  (  1,  2, 11)  (  1,  6,  9)  (  1,  7, 18)

 MAXIMUM RESIDUAL FOR EACH ITERATION (1 INDICATES THE FIRST INNER ITERATION):

    RESIDUAL       RESIDUAL       RESIDUAL       RESIDUAL       RESIDUAL    
   LAYER,ROW,COL  LAYER,ROW,COL  LAYER,ROW,COL  LAYER,ROW,COL  LAYER,ROW,COL
 ---------------------------------------------------------------------------
  1   569.1      0   281.6      0   202.0      0   90.87      0  -73.23    
   (  1,  7, 14)  (  1,  1, 29)  (  1,  1, 29)  (  1,  1, 29)  (  1,  2, 29)
  1  -51.64      0  -21.88      0   11.34      0  -4.883      0  -3.661    
   (  1,  2, 29)  (  1,  2, 29)  (  1,  2, 28)  (  1,  3, 28)  (  1,  3, 28)
  1  -2.518      0  -1.353      0 -0.6688      0 -0.5009      0 -0.3173    
   (  1,  3, 28)  (  1,  4,  2)  (  1,  1,  2)  (  1,  2, 29)  (  1,  2, 29)
  1 -0.2463      0 -0.1116      0 -0.5664E-01  0 -0.2920E-01  0 -0.2185E-01
   (  1,  2, 29)  (  1,  1,  2)  (  1,  1,  2)  (  1,  3,  2)  (  1,  3, 28)
  1 -0.1635E-01  0 -0.9003E-02  0 -0.4384E-02  0 -0.2974E-02  0 -0.1948E-02
   (  1,  3,  2)  (  1,  3,  2)  (  1,  1,  2)  (  1,  2, 29)  (  1,  2, 29)
  1 -0.1523E-02  0 -0.7663E-03  0 -0.3800E-03  0 -0.1978E-03  0 -0.1458E-03
   (  1,  2, 29)  (  1,  1,  2)  (  1,  1,  2)  (  1,  3,  2)  (  1,  3, 28)
  1 -0.1114E-03  0 -0.6233E-04  0 -0.3018E-04  0 -0.1979E-04  0 -0.1263E-04
   (  1,  3,  2)  (  1,  3,  2)  (  1,  1,  2)  (  1,  2, 29)  (  1,  2, 29)
  1 -0.9909E-05  0 -0.5327E-05  0 -0.2622E-05  0 -0.1374E-05  0 -0.9967E-06
   (  1,  2, 29)  (  1,  1,  2)  (  1,  1,  2)  (  1,  3,  2)  (  1,  3, 28)
  1 -0.7702E-06  0 -0.4343E-06  0 -0.2104E-06  0 -0.1342E-06  1 -0.9856E-07
   (  1,  3,  2)  (  1,  3,  2)  (  1,  1,  2)  (  1,  2, 29)  (  1,  2, 29)



 OUTPUT CONTROL FOR STRESS PERIOD    1   TIME STEP    1
    SAVE HEAD FOR ALL LAYERS

 HEAD WILL BE SAVED ON UNIT   51 AT END OF TIME STEP    1, STRESS PERIOD    1
1
  VOLUMETRIC BUDGET FOR ENTIRE MODEL AT END OF TIME STEP    1, STRESS PERIOD   1
  ------------------------------------------------------------------------------

     CUMULATIVE VOLUMES      L**3       RATES FOR THIS TIME STEP      L**3/T
     ------------------                 ------------------------

           IN:                                      IN:
           ---                                      ---
             STORAGE =           0.0000               STORAGE =           0.0000
       CONSTANT HEAD =     2865652.0000         CONSTANT HEAD =        2865.6521
               WELLS =           0.0000                 WELLS =           0.0000

            TOTAL IN =     2865652.0000              TOTAL IN =        2865.6521

          OUT:                                     OUT:
          ----                                     ----
             STORAGE =           0.0000               STORAGE =           0.0000
       CONSTANT HEAD =           0.0000         CONSTANT HEAD =           0.0000
               WELLS =     2865652.0000                 WELLS =        2865.6521

           TOTAL OUT =     2865652.0000             TOTAL OUT =        2865.6521

            IN - OUT =           0.0000              IN - OUT =           0.0000

 PERCENT DISCREPANCY =           0.00     PERCENT DISCREPANCY =           0.00






         TIME SUMMARY AT END OF TIME STEP    1 IN STRESS PERIOD    1
                    SECONDS     MINUTES      HOURS       DAYS        YEARS
                    -----------------------------------------------------------
   TIME STEP LENGTH 8.64000E+07 1.44000E+06  24000.      1000.0      2.7379    
 STRESS PERIOD TIME 8.64000E+07 1.44000E+06  24000.      1000.0      2.7379    
         TOTAL TIME 8.64000E+07 1.44000E+06  24000.      1000.0      2.7379    
1

 Run end date and time (yyyy/mm/dd hh:mm:ss): 2016/11/27 10:13:06
 Elapsed run time:  0.004 Seconds

