                                  MODFLOW-2005     
      U.S. GEOLOGICAL SURVEY MODULAR FINITE-DIFFERENCE GROUND-WATER FLOW MODEL
                            VERSION 1.10.00 3/6/2013

 LIST FILE: syn.list
                         UNIT    2

 OPENING syn.dis
 FILE TYPE:DIS   UNIT   11   STATUS:OLD    
 FORMAT:FORMATTED              ACCESS:SEQUENTIAL          

 OPENING syn.bas
 FILE TYPE:BAS6   UNIT   13   STATUS:OLD    
 FORMAT:FORMATTED              ACCESS:SEQUENTIAL          

 OPENING syn.lpf
 FILE TYPE:LPF   UNIT   15   STATUS:OLD    
 FORMAT:FORMATTED              ACCESS:SEQUENTIAL          

 OPENING syn.gmg
 FILE TYPE:GMG   UNIT   27   STATUS:OLD    
 FORMAT:FORMATTED              ACCESS:SEQUENTIAL          

 OPENING syn.oc
 FILE TYPE:OC   UNIT   14   STATUS:OLD    
 FORMAT:FORMATTED              ACCESS:SEQUENTIAL          

 OPENING syn.hds
 FILE TYPE:DATA(BINARY)   UNIT   51   STATUS:REPLACE
 FORMAT:BINARY                 ACCESS:SEQUENTIAL          

 OPENING syn.ddn
 FILE TYPE:DATA(BINARY)   UNIT   52   STATUS:REPLACE
 FORMAT:BINARY                 ACCESS:SEQUENTIAL          

 OPENING syn.cbc
 FILE TYPE:DATA(BINARY)   UNIT   53   STATUS:REPLACE
 FORMAT:BINARY                 ACCESS:SEQUENTIAL          

 OPENING syn.wel
 FILE TYPE:WEL   UNIT   20   STATUS:OLD    
 FORMAT:FORMATTED              ACCESS:SEQUENTIAL          

 BAS -- BASIC PACKAGE, VERSION 7, 5/2/2005 INPUT READ FROM UNIT   13
 
 MODFLOW was compiled using mixed precision
 Precision of REAL variables:           6
 Precision of DOUBLE PRECISION variables:          15

 DISCRETIZATION INPUT DATA READ FROM UNIT   11
 # Discretization file for MODFLOW, generated by Flopy.
    1 LAYERS        80 ROWS        50 COLUMNS
    1 STRESS PERIOD(S) IN SIMULATION
 MODEL TIME UNIT IS DAYS
 MODEL LENGTH UNIT IS METERS
  Confining bed flag for each layer:
   0

 OPENING FILE ON UNIT   99:
 ref\delr.ref                                                                                                                                                                                            



                               DELR
 READING ON UNIT   99 WITH FORMAT: (50G15.6)           

 OPENING FILE ON UNIT   99:
 ref\delc.ref                                                                                                                                                                                            



                               DELC
 READING ON UNIT   99 WITH FORMAT: (80G15.6)           

 OPENING FILE ON UNIT   99:
 ref\model_top.ref                                                                                                                                                                                       



           TOP ELEVATION OF LAYER 1
 READING ON UNIT   99 WITH FORMAT: (50G15.6)           

 OPENING FILE ON UNIT   99:
 ref\botm_Layer_1.ref                                                                                                                                                                                    



             MODEL LAYER BOTTOM EL. FOR LAYER   1
 READING ON UNIT   99 WITH FORMAT: (50G15.6)           


 STRESS PERIOD     LENGTH       TIME STEPS     MULTIPLIER FOR DELT    SS FLAG
 ----------------------------------------------------------------------------
        1        1.0000000          1                    1.000         SS

 STEADY-STATE SIMULATION



 
 # Basic package file for MODFLOW, generated by Flopy.                           
 THE FREE FORMAT OPTION HAS BEEN SELECTED

 OPENING FILE ON UNIT   99:
 ref\ibound_Layer_1.ref                                                                                                                                                                                  



                     BOUNDARY ARRAY FOR LAYER   1
 READING ON UNIT   99 WITH FORMAT: (50I10)             

 AQUIFER HEAD WILL BE SET TO  -999.99     AT ALL NO-FLOW NODES (IBOUND=0).

 OPENING FILE ON UNIT   99:
 ref\strt_Layer_1.ref                                                                                                                                                                                    



                       INITIAL HEAD FOR LAYER   1
 READING ON UNIT   99 WITH FORMAT: (50G15.6)           
 # Output control package file for MODFLOW, generated by Flopy. Output control by words option

 OUTPUT CONTROL IS SPECIFIED ONLY AT TIME STEPS FOR WHICH OUTPUT IS DESIRED
 HEAD PRINT FORMAT CODE IS   0    DRAWDOWN PRINT FORMAT CODE IS   0
 HEADS WILL BE SAVED ON UNIT   51    DRAWDOWNS WILL BE SAVED ON UNIT   52

 LPF -- LAYER-PROPERTY FLOW PACKAGE, VERSION 7, 5/2/2005
         INPUT READ FROM UNIT   15
 # LPF for MODFLOW, generated by Flopy.
 CELL-BY-CELL FLOWS WILL BE SAVED ON UNIT   53
 HEAD AT CELLS THAT CONVERT TO DRY= -1.00000E+30
 No named parameters

   LAYER FLAGS:
 LAYER       LAYTYP        LAYAVG         CHANI        LAYVKA        LAYWET
 ---------------------------------------------------------------------------
    1             0             0     1.000E+00             0             0

   INTERPRETATION OF LAYER FLAGS:
                        INTERBLOCK     HORIZONTAL    DATA IN
         LAYER TYPE   TRANSMISSIVITY   ANISOTROPY   ARRAY VKA   WETTABILITY
 LAYER      (LAYTYP)      (LAYAVG)       (CHANI)      (LAYVKA)      (LAYWET)
 ---------------------------------------------------------------------------
    1      CONFINED      HARMONIC     1.000E+00    VERTICAL K  NON-WETTABLE

 WETTING CAPABILITY IS NOT ACTIVE IN ANY LAYER

 OPENING FILE ON UNIT   99:
 ref\hk_Layer_1.ref                                                                                                                                                                                      



              HYD. COND. ALONG ROWS FOR LAYER   1
 READING ON UNIT   99 WITH FORMAT: (FREE)              

 OPENING FILE ON UNIT   99:
 ref\hk_Layer_1.ref                                                                                                                                                                                      



                VERTICAL HYD. COND. FOR LAYER   1
 READING ON UNIT   99 WITH FORMAT: (FREE)              

 WEL -- WELL PACKAGE, VERSION 7, 5/2/2005 INPUT READ FROM UNIT   20
 # Well file for MODFLOW, generated by Flopy.
 No named parameters
 MAXIMUM OF     50 ACTIVE WELLS AT ONE TIME


     0 Well parameters
 # GMG for MODFLOW, generated by Flopy.
 -------------------------------------------------
 GMG -- PCG GEOMETRIC MULTI-GRID SOLUTION PACKAGE:
 -------------------------------------------------
 RCLOSE  = 1.00E-02; INNER CONVERGENCE CRITERION
 IITER   =       30; MAX INNER ITERATIONS            
 HCLOSE  = 1.00E-02; OUTER CONVERGENCE CRITERION
 MXIITER =     1000; MAX OUTER ITERATIONS            
 DAMP    = 1.00E+00; DAMPING PARAMETER          
 IADAMP  =        0; ADAPTIVE DAMPING FLAG           
 IOUTGMG =        0; OUTPUT CONTROL FLAG             
 ISM     =        0; SMOOTHER FLAG                   
 ISC     =        0; COARSENING FLAG                 
 RELAX   = 0.00E+00; RELAXATION PARAMETER       
 -------------------------------------------------
 ILU SMOOTHING IMPLEMENTED
 FULL COARSENING
 -------------------------------------------------
    0 MEGABYTES OF MEMORY ALLOCATED BY GMG
 -------------------------------------------------

1
                            STRESS PERIOD NO.    1, LENGTH =  1.0000000    
                            -----------------------------------------------

                              NUMBER OF TIME STEPS =     1

                               MULTIPLIER FOR DELT =     1.000

                            INITIAL TIME STEP SIZE =  1.0000000    

 WELL NO.  LAYER   ROW   COL   STRESS RATE         
 --------------------------------------------------
      1      1      1      1      1.0000    
      2      1      1      2      1.0000    
      3      1      1      3      1.0000    
      4      1      1      4      1.0000    
      5      1      1      5      1.0000    
      6      1      1      6      1.0000    
      7      1      1      7      1.0000    
      8      1      1      8      1.0000    
      9      1      1      9      1.0000    
     10      1      1     10      1.0000    
     11      1      1     11      1.0000    
     12      1      1     12      1.0000    
     13      1      1     13      1.0000    
     14      1      1     14      1.0000    
     15      1      1     15      1.0000    
     16      1      1     16      1.0000    
     17      1      1     17      1.0000    
     18      1      1     18      1.0000    
     19      1      1     19      1.0000    
     20      1      1     20      1.0000    
     21      1      1     21      1.0000    
     22      1      1     22      1.0000    
     23      1      1     23      1.0000    
     24      1      1     24      1.0000    
     25      1      1     25      1.0000    
     26      1      1     26      1.0000    
     27      1      1     27      1.0000    
     28      1      1     28      1.0000    
     29      1      1     29      1.0000    
     30      1      1     30      1.0000    
     31      1      1     31      1.0000    
     32      1      1     32      1.0000    
     33      1      1     33      1.0000    
     34      1      1     34      1.0000    
     35      1      1     35      1.0000    
     36      1      1     36      1.0000    
     37      1      1     37      1.0000    
     38      1      1     38      1.0000    
     39      1      1     39      1.0000    
     40      1      1     40      1.0000    
     41      1      1     41      1.0000    
     42      1      1     42      1.0000    
     43      1      1     43      1.0000    
     44      1      1     44      1.0000    
     45      1      1     45      1.0000    
     46      1      1     46      1.0000    
     47      1      1     47      1.0000    
     48      1      1     48      1.0000    
     49      1      1     49      1.0000    
     50      1      1     50      1.0000    

     50 WELLS
 
 SOLVING FOR HEAD 

 OUTPUT CONTROL FOR STRESS PERIOD    1   TIME STEP    1
    SAVE HEAD FOR ALL LAYERS
    SAVE BUDGET
 UBUDSV SAVING "   CONSTANT HEAD" ON UNIT 53 AT TIME STEP  1, STRESS PERIOD    1
 UBUDSV SAVING "FLOW RIGHT FACE " ON UNIT 53 AT TIME STEP  1, STRESS PERIOD    1
 UBUDSV SAVING "FLOW FRONT FACE " ON UNIT 53 AT TIME STEP  1, STRESS PERIOD    1

 HEAD WILL BE SAVED ON UNIT   51 AT END OF TIME STEP    1, STRESS PERIOD    1
1
  VOLUMETRIC BUDGET FOR ENTIRE MODEL AT END OF TIME STEP    1, STRESS PERIOD   1
  ------------------------------------------------------------------------------

     CUMULATIVE VOLUMES      L**3       RATES FOR THIS TIME STEP      L**3/T
     ------------------                 ------------------------

           IN:                                      IN:
           ---                                      ---
             STORAGE =           0.0000               STORAGE =           0.0000
       CONSTANT HEAD =           0.0000         CONSTANT HEAD =           0.0000
               WELLS =          50.0000                 WELLS =          50.0000

            TOTAL IN =          50.0000              TOTAL IN =          50.0000

          OUT:                                     OUT:
          ----                                     ----
             STORAGE =           0.0000               STORAGE =           0.0000
       CONSTANT HEAD =          49.9996         CONSTANT HEAD =          49.9996
               WELLS =           0.0000                 WELLS =           0.0000

           TOTAL OUT =          49.9996             TOTAL OUT =          49.9996

            IN - OUT =       4.4632E-04              IN - OUT =       4.4632E-04

 PERCENT DISCREPANCY =           0.00     PERCENT DISCREPANCY =           0.00






         TIME SUMMARY AT END OF TIME STEP    1 IN STRESS PERIOD    1
                    SECONDS     MINUTES      HOURS       DAYS        YEARS
                    -----------------------------------------------------------
   TIME STEP LENGTH  86400.      1440.0      24.000     1.00000     2.73785E-03
 STRESS PERIOD TIME  86400.      1440.0      24.000     1.00000     2.73785E-03
         TOTAL TIME  86400.      1440.0      24.000     1.00000     2.73785E-03
1

 Run end date and time (yyyy/mm/dd hh:mm:ss): 2014/06/11 17:24:47
 Elapsed run time:  0.063 Seconds

