                                  MODFLOW-LGR2     
      U.S. GEOLOGICAL SURVEY MODULAR FINITE-DIFFERENCE GROUNDWATER FLOW MODEL
                 VERSION GWM-2005 1.5.2 091115,FROM MF-LGR V2.0


     FINAL FLOW PROCESS SIMULATION FOR GWM                                                                                                                                                                   


 REWOUND seawater.dis
 FILE TYPE:DIS   UNIT   11

 REWOUND seawater.ba6
 FILE TYPE:BAS6   UNIT   12

 REWOUND seawater.bc6
 FILE TYPE:BCF6   UNIT   13

 REWOUND seawater.wel
 FILE TYPE:WEL   UNIT   14

 REWOUND seawater.rch
 FILE TYPE:RCH   UNIT   15

 REWOUND seawater.pcg
 FILE TYPE:PCG   UNIT   16

 REWOUND seawater.pval
 FILE TYPE:PVAL   UNIT   17

 REWOUND seawater.gwm
 FILE TYPE:GWM   UNIT   18

 REWOUND seawater.gwmw
 FILE TYPE:DATA   UNIT   20

 BAS -- BASIC PACKAGE, VERSION 7, 5/2/2005 INPUT READ FROM UNIT   12

 DISCRETIZATION INPUT DATA READ FROM UNIT   11
 #Seawater sample problem for GWM
    2 LAYERS        20 ROWS        30 COLUMNS
    1 STRESS PERIOD(S) IN SIMULATION
 MODEL TIME UNIT IS DAYS
 MODEL LENGTH UNIT IS UNDEFINED
  Confining bed flag for each layer:
   0   0

                     DELR =   200.000    

                     DELC =   200.000    

 TOP ELEVATION OF LAYER 1 =   100.000    

   MODEL LAYER BOTTOM EL. =  -10.0000     FOR LAYER   1

   MODEL LAYER BOTTOM EL. =  -20.0000     FOR LAYER   2


 STRESS PERIOD     LENGTH       TIME STEPS     MULTIPLIER FOR DELT    SS FLAG
 ----------------------------------------------------------------------------
        1         1.000000          1                    1.000         SS

 STEADY-STATE SIMULATION



 
 #Seawater sample problem for GWM                                                
 THE FREE FORMAT OPTION HAS BEEN SELECTED



                     BOUNDARY ARRAY FOR LAYER   1
 READING ON UNIT   12 WITH FORMAT: (20I4)              



                     BOUNDARY ARRAY FOR LAYER   2
 READING ON UNIT   12 WITH FORMAT: (20I4)              

 AQUIFER HEAD WILL BE SET TO  0.0000     AT ALL NO-FLOW NODES (IBOUND=0).



                       INITIAL HEAD FOR LAYER   1
 READING ON UNIT   12 WITH FORMAT: (10F13.0)           



                       INITIAL HEAD FOR LAYER   2
 READING ON UNIT   12 WITH FORMAT: (10F13.0)           

 DEFAULT OUTPUT CONTROL
 THE FOLLOWING OUTPUT COMES AT THE END OF EACH STRESS PERIOD:
 TOTAL VOLUMETRIC BUDGET
           HEAD

 PARAMETER VALUE INPUT FILE,  INPUT READ FROM UNIT   17
 #  PVAL file for GWM Seawater Sample Problem
 #  The recharge parameter is set to 0.002 in this file
 #  and overrides the value specified in the recharge file

 NUMBER OF PARAMETER VALUES TO BE READ FROM PARAMETER VALUE FILE:    1

 INFORMATION ON PARAMETERS LISTED IN PARAMETER FILE
               VALUE IN
    NAME     PARAMETER FILE
 ----------  --------------
 REC-SP1      0.20000E-02
 -----------------------------------------------------------------------------
 FOR THE PARAMETERS LISTED IN THE TABLE ABOVE, PARAMETER VALUES IN INDIVIDUAL
 PACKAGE INPUT FILES ARE REPLACED BY THE VALUES FROM THE PARAMETER INPUT FILE.

 BCF -- BLOCK-CENTERED FLOW PACKAGE, VERSION 7, 5/2/2005
         INPUT READ FROM UNIT 13
 STEADY-STATE SIMULATION
 HEAD AT CELLS THAT CONVERT TO DRY=  0.10000E+11
 WETTING CAPABILITY IS ACTIVE
 WETTING FACTOR=   1.00000     WETTING ITERATION INTERVAL=   1
 FLAG THAT SPECIFIES THE EQUATION TO USE FOR HEAD AT WETTED CELLS=   0
      LAYER  LAYER-TYPE CODE     INTERBLOCK T
      --------------------------------------------
         1            1         10 -- ARITHMETIC  
         2            0          0 -- HARMONIC    

 COLUMN TO ROW ANISOTROPY =   1.00000    

    HYD. COND. ALONG ROWS =   5.00000     FOR LAYER   1

 VERT HYD COND /THICKNESS =  5.000000E-02 FOR LAYER   1

         WETDRY PARAMETER =   1.00000     FOR LAYER   1

     TRANSMIS. ALONG ROWS =   800.000     FOR LAYER   2

 WEL -- WELL PACKAGE, VERSION 7, 5/2/2005 INPUT READ FROM UNIT   14
 No named parameters
 MAXIMUM OF      1 ACTIVE WELLS AT ONE TIME


     0 Well parameters

 RCH -- RECHARGE PACKAGE, VERSION 7, 5/2/2005 INPUT READ FROM UNIT   15
 # Recharge file for GWM Seawater Problem with a Parameter defined
     1 Named Parameters     
 OPTION 1 -- RECHARGE TO TOP LAYER


     1 Recharge parameters

 PARAMETER NAME:REC-SP1      TYPE:RCH    CLUSTERS:   1
 Parameter value from package file is:    0.0000    
 This value has been changed to:         2.00000E-03, as read from
 the Parameter Value file
                MULTIPLIER ARRAY: NONE    ZONE ARRAY: ALL
1
                            STRESS PERIOD NO.    1, LENGTH =   1.000000    
                            -----------------------------------------------

                              NUMBER OF TIME STEPS =     1

                               MULTIPLIER FOR DELT =     1.000

                            INITIAL TIME STEP SIZE =   1.000000    

 WELL NO.  LAYER   ROW   COL   STRESS RATE         
 --------------------------------------------------
      1      2     13     20      -5000.    

      1 WELL 



 RECH array defined by the following parameters:
 Parameter:  REC-SP1

                 RECHARGE =  2.000000E-03

Flows at Managed Wells for Stress Period    1

 Well no.  Layer   Row   Col   Stress Rate
 ----------------------------------------------------
        1      1     7    12   -10000.00000000000    
        2      1    10    13   -3300.918169050767    
        3      1    10    16    0.000000000000000    
        4      1    12    15    0.000000000000000    
        5      1    15    11   -838.7306825772248    
        6      2    15    11   -838.7306825772248    
        7      1     7    27    31.46982240779160    
        8      2     7    27    31.46982240779160    
        9      1    11    27    266.0578317662818    
       10      2    11    27    266.0578317662818    
       11      1    15    27    147.7541637563976    
       12      2    15    27    147.7541637563976    
 ----------------------------------------------------
                      Total:   -14087.81589834428    
 
 SOLVING FOR HEAD 


   125 CALLS TO PCG ROUTINE FOR TIME STEP   1 IN STRESS PERIOD    1
   619 TOTAL ITERATIONS

 MAXIMUM HEAD CHANGE FOR EACH ITERATION (1 INDICATES THE FIRST INNER ITERATION):

    HEAD CHANGE    HEAD CHANGE    HEAD CHANGE    HEAD CHANGE    HEAD CHANGE 
   LAYER,ROW,COL  LAYER,ROW,COL  LAYER,ROW,COL  LAYER,ROW,COL  LAYER,ROW,COL
 ---------------------------------------------------------------------------
  1  -39.99      0  -14.76      0  -10.86      0  -8.658      0  -7.052    
   (  1, 20, 29)  (  1,  2, 28)  (  2, 19, 26)  (  1, 18, 25)  (  1, 16, 24)
  1  -1.828      0  -3.670      0  -3.398      0  -3.757      0  -4.238    
   (  2,  6, 21)  (  1,  7, 20)  (  1,  9, 19)  (  1, 10, 18)  (  1, 10, 16)
  1  -1.319      0  -1.242      0  -1.280      0  -1.514      0  -1.822    
   (  2,  2,  1)  (  1, 10, 12)  (  1, 11, 11)  (  1, 12, 10)  (  1, 12,  9)
  1 -0.8079      0  -1.506      0  -1.759      0  -2.176      0  -2.709    
   (  2,  1,  2)  (  2,  2,  1)  (  2,  1,  2)  (  2,  2,  1)  (  2,  1,  2)
  1  0.9754      0  0.9886      0 -0.8930      0  -1.326      0  -1.219    
   (  2,  1,  2)  (  2,  2,  1)  (  2, 11, 11)  (  1, 12,  9)  (  1, 10,  9)
  1 -0.9658      0  -1.121      0  -1.432      0  -1.853      0  -2.076    
   (  1,  7, 12)  (  2,  2,  1)  (  2,  1,  2)  (  2,  2,  1)  (  2,  1,  2)
  1  0.8157      0  0.8181      0 -0.7218      0  -1.051      0 -0.9653    
   (  2,  1,  2)  (  2,  2,  1)  (  1, 16,  8)  (  1, 12,  9)  (  1, 10,  9)
  1 -0.9681      0 -0.8097      0  -1.087      0  -1.472      0  -1.621    
   (  1,  7, 12)  (  2,  2,  1)  (  2,  1,  2)  (  2,  2,  1)  (  2,  1,  2)
  1 -0.7164      0  0.6466      0 -0.5550      0 -0.8010      0 -0.7752    
   (  1,  7, 12)  (  2,  2,  1)  (  1, 17,  8)  (  1, 12,  9)  (  2,  2,  1)
  1 -0.8626      0 -0.5918      0 -0.8126      0  -1.141      0  -1.264    
   (  1,  7, 12)  (  2,  2,  1)  (  2,  1,  2)  (  2,  2,  1)  (  2,  1,  2)
  1 -0.6085      0  0.4985      0 -0.4216      0 -0.5950      0 -0.6129    
   (  1,  7, 12)  (  2,  2,  1)  (  1, 17,  8)  (  2,  9,  9)  (  2,  2,  1)
  1 -0.7107      0 -0.4324      0 -0.6048      0 -0.8691      0 -0.9752    
   (  1,  7, 12)  (  2,  2,  1)  (  2,  1,  2)  (  2,  2,  1)  (  2,  1,  2)
  1 -0.4896      0  0.3784      0 -0.3181      0 -0.4415      0 -0.4754    
   (  1,  7, 12)  (  2,  2,  1)  (  1, 17,  8)  (  1,  7, 12)  (  2,  2,  1)
  1 -0.5573      0 -0.3143      0 -0.4477      0 -0.6549      0 -0.7422    
   (  1,  7, 12)  (  2,  2,  1)  (  2,  1,  2)  (  2,  2,  1)  (  2,  1,  2)
  1 -0.3830      0  0.2837      0 -0.2390      0 -0.3310      0 -0.3632    
   (  1,  7, 12)  (  2,  2,  1)  (  1, 17,  8)  (  1,  7, 12)  (  2,  2,  1)
  1 -0.4244      0 -0.2269      0 -0.3290      0 -0.4891      0 -0.5577    
   (  1,  7, 12)  (  2,  2,  1)  (  2,  1,  2)  (  2,  2,  1)  (  2,  1,  2)
  1 -0.2951      0  0.2102      0 -0.1793      0 -0.2444      0 -0.2745    
   (  1,  7, 12)  (  2,  2,  1)  (  1, 17,  8)  (  1,  7, 12)  (  2,  2,  1)
  1 -0.3174      0 -0.1625      0 -0.2398      0 -0.3622      0 -0.4144    
   (  1,  7, 12)  (  2,  2,  1)  (  2,  1,  2)  (  2,  2,  1)  (  2,  1,  2)
  1 -0.2251      0  0.1538      0 -0.1343      0 -0.1788      0 -0.2059    
   (  1,  7, 12)  (  2,  2,  1)  (  1, 17,  8)  (  1,  7, 12)  (  2,  2,  1)
  1 -0.2344      0 -0.1153      0 -0.1731      0 -0.2658      0 -0.3045    
   (  1,  7, 12)  (  2,  2,  1)  (  2,  1,  2)  (  2,  2,  1)  (  2,  1,  2)
  1 -0.1704      0  0.1109      0 -0.1010      0 -0.1297      0 -0.1538    
   (  1,  7, 12)  (  2,  2,  1)  (  1, 18,  8)  (  1,  7, 12)  (  2,  2,  1)
  1 -0.1714      0 -0.8091E-01  0 -0.1237      0 -0.1931      0 -0.2213    
   (  1,  7, 12)  (  2,  2,  1)  (  2,  1,  2)  (  2,  2,  1)  (  2,  1,  2)
  1 -0.1281      0  0.7843E-01  0 -0.7651E-01  0 -0.9345E-01  0 -0.1146    
   (  1,  7, 12)  (  2,  2,  1)  (  1, 18,  8)  (  1,  7, 12)  (  2,  2,  1)
  1 -0.1243      0 -0.5596E-01  0 -0.8717E-01  0 -0.1385      0 -0.1590    
   (  1,  7, 12)  (  2,  2,  1)  (  2,  1,  2)  (  2,  2,  1)  (  2,  1,  2)
  1 -0.9574E-01  0  0.5411E-01  0 -0.5831E-01  0 -0.6678E-01  0 -0.8523E-01
   (  1,  7, 12)  (  2,  2,  1)  (  1, 18,  8)  (  1,  7, 12)  (  2,  2,  1)
  1 -0.8940E-01  0 -0.3846E-01  0 -0.6051E-01  0 -0.9795E-01  0 -0.1127    
   (  1,  7, 12)  (  1,  7, 13)  (  1, 11,  1)  (  2,  2,  1)  (  2,  1,  2)
  1 -0.7125E-01  0 -0.3955E-01  0 -0.4470E-01  0 -0.5086E-01  0 -0.6321E-01
   (  1,  7, 12)  (  2,  1,  2)  (  1, 18,  8)  (  2,  1,  2)  (  2,  2,  1)
  1 -0.6382E-01  0 -0.2912E-01  0 -0.4639E-01  0 -0.6810E-01  0 -0.7900E-01
   (  1,  7, 12)  (  1,  7, 13)  (  1, 11,  1)  (  2,  2,  1)  (  2,  1,  2)
  1 -0.5287E-01  0 -0.3194E-01  0 -0.3439E-01  0 -0.4045E-01  0 -0.4657E-01
   (  1,  7, 12)  (  2,  1,  2)  (  2,  2,  1)  (  2,  1,  2)  (  2,  2,  1)
  1 -0.4521E-01  0 -0.2221E-01  0 -0.3553E-01  0 -0.4922E-01  0 -0.5501E-01
   (  1,  7, 12)  (  1,  7, 13)  (  1, 11,  1)  (  1, 13,  1)  (  2,  1,  2)
  1 -0.3919E-01  0 -0.2599E-01  0 -0.2903E-01  0 -0.3216E-01  0 -0.3396E-01
   (  1,  7, 12)  (  2,  1,  2)  (  2,  2,  1)  (  2,  1,  2)  (  2,  2,  1)
  1 -0.3181E-01  0 -0.1703E-01  0 -0.2701E-01  0 -0.3585E-01  0 -0.3843E-01
   (  1,  7, 12)  (  1,  7, 13)  (  1, 11,  1)  (  1, 13,  1)  (  2,  1,  2)
  1 -0.2910E-01  0 -0.2107E-01  0 -0.2434E-01  0 -0.2538E-01  0 -0.2449E-01
   (  1,  7, 12)  (  2,  1,  2)  (  2,  2,  1)  (  2,  1,  2)  (  2,  2,  1)
  1 -0.2227E-01  0 -0.1307E-01  0 -0.2023E-01  0 -0.2578E-01  0 -0.2721E-01
   (  1,  7, 12)  (  1,  7, 13)  (  1, 11,  1)  (  1, 13,  1)  (  2,  1,  2)
  1 -0.2167E-01  0 -0.1679E-01  0 -0.1998E-01  0 -0.1978E-01  0 -0.1757E-01
   (  1,  7, 12)  (  2,  1,  2)  (  2,  2,  1)  (  2,  1,  2)  (  2,  2,  1)
  1 -0.1556E-01  0 -0.9987E-02  0 -0.1488E-01  0 -0.1842E-01  0 -0.1960E-01
   (  1,  7, 12)  (  1,  7, 13)  (  1, 11,  1)  (  1, 13,  1)  (  2,  1,  2)
  1 -0.1618E-01  0 -0.1306E-01  0 -0.1596E-01  0 -0.1524E-01  0 -0.1265E-01
   (  1,  7, 12)  (  2,  1,  2)  (  2,  2,  1)  (  2,  1,  2)  (  2,  2,  1)
  1 -0.1087E-01  0 -0.7572E-02  0 -0.1078E-01  0 -0.1315E-01  0 -0.1431E-01
   (  1,  7, 12)  (  1,  7, 13)  (  1, 11,  1)  (  1, 13,  1)  (  2,  1,  2)
  1 -0.1209E-01  0 -0.9897E-02  0 -0.1241E-01  0 -0.1164E-01  0 -0.9191E-02
   (  1,  7, 12)  (  2,  1,  2)  (  2,  2,  1)  (  2,  1,  2)  (  2,  2,  1)
  1 -0.7611E-02  0  0.5909E-02  0 -0.7749E-02  0 -0.9407E-02  0 -0.1054E-01
   (  1,  7, 12)  (  2,  1,  2)  (  1, 11,  1)  (  1, 14,  1)  (  2,  1,  2)
  1 -0.9014E-02  0 -0.7352E-02  0 -0.9457E-02  0 -0.8839E-02  0 -0.6734E-02
   (  1,  7, 12)  (  2,  1,  2)  (  2,  2,  1)  (  2,  1,  2)  (  2,  2,  1)
  1 -0.5346E-02  0  0.4618E-02  0 -0.5555E-02  0 -0.6778E-02  0 -0.7788E-02
   (  1,  7, 12)  (  2,  1,  2)  (  1, 11,  1)  (  1, 14,  1)  (  2,  1,  2)
  1 -0.6699E-02  0 -0.5385E-02  0 -0.7106E-02  0 -0.6679E-02  0 -0.4963E-02
   (  1,  7, 12)  (  2,  1,  2)  (  2,  2,  1)  (  2,  1,  2)  (  2,  2,  1)
  1 -0.3771E-02  0  0.3555E-02  0 -0.3987E-02  0 -0.4895E-02  0 -0.5767E-02
   (  1,  7, 12)  (  2,  1,  2)  (  1, 12,  1)  (  1, 14,  1)  (  2,  1,  2)
  1 -0.4963E-02  0 -0.3907E-02  0 -0.5288E-02  0 -0.5028E-02  0 -0.3669E-02
   (  1,  7, 12)  (  2,  1,  2)  (  2,  2,  1)  (  2,  1,  2)  (  2,  2,  1)
  1 -0.2673E-02  0  0.2708E-02  0 -0.2870E-02  0 -0.3541E-02  0 -0.4272E-02
   (  1,  7, 12)  (  2,  1,  2)  (  1, 12,  1)  (  1, 14,  1)  (  2,  1,  2)
  1 -0.3667E-02  0 -0.2819E-02  0 -0.3910E-02  0 -0.3775E-02  0 -0.2715E-02
   (  1,  7, 12)  (  2,  1,  2)  (  2,  2,  1)  (  2,  1,  2)  (  2,  2,  1)
  1 -0.1905E-02  0  0.2048E-02  0 -0.2071E-02  0 -0.2563E-02  0 -0.3165E-02
   (  1,  7, 12)  (  2,  1,  2)  (  1, 12,  1)  (  1, 14,  1)  (  2,  1,  2)
  1 -0.2705E-02  0 -0.2027E-02  0 -0.2878E-02  0 -0.2827E-02  0 -0.2010E-02
   (  1,  7, 12)  (  2,  1,  2)  (  2,  2,  1)  (  2,  1,  2)  (  2,  2,  1)
  1 -0.1364E-02  0  0.1541E-02  0 -0.1498E-02  0 -0.1855E-02  0 -0.2344E-02
   (  1,  7, 12)  (  2,  1,  2)  (  1, 12,  1)  (  1, 14,  1)  (  2,  1,  2)
  1 -0.1994E-02  0 -0.1454E-02  0 -0.2112E-02  0 -0.2113E-02  0 -0.1488E-02
   (  1,  7, 12)  (  2,  1,  2)  (  2,  2,  1)  (  2,  1,  2)  (  2,  2,  1)
  1 -0.9817E-03  0  0.1155E-02  0 -0.1085E-02  0 -0.1343E-02  0 -0.1735E-02
   (  1,  7, 12)  (  2,  1,  2)  (  1, 12,  1)  (  1, 14,  1)  (  2,  1,  2)
  1 -0.1469E-02  0 -0.1042E-02  0 -0.1546E-02  0 -0.1578E-02  0 -0.1100E-02
   (  1,  7, 12)  (  2,  1,  2)  (  2,  2,  1)  (  2,  1,  2)  (  2,  2,  1)
  1 -0.7099E-03  0  0.8632E-03  0 -0.7863E-03  0 -0.9724E-03  0 -0.1284E-02
   (  1,  7, 12)  (  2,  1,  2)  (  1, 12,  1)  (  1, 14,  1)  (  2,  1,  2)
  1 -0.1082E-02  0 -0.7467E-03  0 -0.1129E-02  0 -0.1176E-02  0 -0.8130E-03
   (  1,  7, 12)  (  2,  1,  2)  (  2,  2,  1)  (  2,  1,  2)  (  2,  2,  1)
  1 -0.5157E-03  0  0.6435E-03  0 -0.5704E-03  0 -0.7038E-03  0 -0.9489E-03
   (  1,  7, 12)  (  2,  1,  2)  (  1, 12,  1)  (  1, 14,  1)  (  2,  1,  2)
  1 -0.7979E-03  0 -0.5351E-03  0 -0.8236E-03  0 -0.8761E-03  0 -0.6004E-03
   (  1,  7, 12)  (  2,  1,  2)  (  2,  2,  1)  (  2,  1,  2)  (  2,  2,  1)
  1 -0.3761E-03  0  0.4788E-03  0 -0.4139E-03  0 -0.5094E-03  0 -0.7010E-03
   (  1,  7, 12)  (  2,  1,  2)  (  1, 12,  1)  (  1, 14,  1)  (  2,  1,  2)
  1 -0.5884E-03  0 -0.3837E-03  0 -0.5999E-03  0 -0.6519E-03  0 -0.4430E-03
   (  1,  7, 12)  (  2,  1,  2)  (  2,  2,  1)  (  2,  1,  2)  (  2,  2,  1)
  1 -0.2754E-03  0  0.3556E-03  0 -0.3003E-03  0 -0.3686E-03  0 -0.5174E-03
   (  1,  7, 12)  (  2,  1,  2)  (  1, 12,  1)  (  1, 14,  1)  (  2,  1,  2)
  1 -0.4340E-03  0 -0.2754E-03  0 -0.4365E-03  0 -0.4846E-03  0 -0.3267E-03
   (  1,  7, 12)  (  2,  1,  2)  (  2,  2,  1)  (  2,  1,  2)  (  2,  2,  1)
  1 -0.2022E-03  0  0.2637E-03  0 -0.2180E-03  0 -0.2666E-03  0 -0.3817E-03
   (  1,  7, 12)  (  2,  1,  2)  (  1, 12,  1)  (  1, 14,  1)  (  2,  1,  2)
  1 -0.3202E-03  0 -0.1979E-03  0 -0.3173E-03  0 -0.3599E-03  0 -0.2407E-03
   (  1,  7, 12)  (  2,  1,  2)  (  2,  2,  1)  (  2,  1,  2)  (  2,  2,  1)
  1 -0.1489E-03  0  0.1952E-03  0 -0.1582E-03  0 -0.1928E-03  0 -0.2813E-03
   (  1,  7, 12)  (  2,  1,  2)  (  1, 12,  1)  (  1, 14,  1)  (  2,  1,  2)
  1 -0.2362E-03  0 -0.1423E-03  0 -0.2305E-03  0 -0.2670E-03  0 -0.1772E-03
   (  1,  7, 12)  (  2,  1,  2)  (  2,  2,  1)  (  2,  1,  2)  (  2,  2,  1)
  1 -0.1099E-03  0  0.1444E-03  0 -0.1148E-03  0 -0.1395E-03  0 -0.2072E-03
   (  1,  7, 12)  (  2,  1,  2)  (  1, 12,  1)  (  1, 14,  1)  (  2,  1,  2)
  1 -0.1742E-03  0 -0.1025E-03  0 -0.1673E-03  0 -0.1979E-03  0 -0.1304E-03
   (  1,  7, 12)  (  2,  1,  2)  (  2,  2,  1)  (  2,  1,  2)  (  2,  2,  1)
  1 -0.8126E-04  0  0.1066E-03  0 -0.8326E-04  0 -0.1008E-03  0 -0.1524E-03
   (  1,  7, 12)  (  2,  1,  2)  (  1, 12,  1)  (  1, 14,  1)  (  2,  1,  2)
  1 -0.1285E-03  0 -0.7388E-04  0 -0.1213E-03  0 -0.1466E-03  0 -0.9585E-04
   (  1,  7, 12)  (  2,  1,  2)  (  2,  2,  1)  (  2,  1,  2)  (  2,  2,  1)
  1 -0.6015E-04  0  0.7863E-04  0 -0.6040E-04  0 -0.7289E-04  0 -0.1120E-03
   (  1,  7, 12)  (  2,  1,  2)  (  1, 12,  1)  (  1, 14,  1)  (  2,  1,  2)
  1 -0.9464E-04  0 -0.5333E-04  0 -0.8792E-04  0 -0.1084E-03  0 -0.7042E-04
   (  1,  7, 12)  (  2,  1,  2)  (  2,  2,  1)  (  2,  1,  2)  (  2,  2,  1)
  1 -0.4456E-04  0  0.5792E-04  0 -0.4380E-04  0 -0.5269E-04  0 -0.8228E-04
   (  1,  7, 12)  (  2,  1,  2)  (  1, 12,  1)  (  1, 14,  1)  (  2,  1,  2)
  1 -0.6967E-04  0 -0.3854E-04  0 -0.6369E-04  0 -0.8012E-04  0 -0.5169E-04
   (  1,  7, 12)  (  2,  1,  2)  (  2,  2,  1)  (  2,  1,  2)  (  2,  2,  1)
  1 -0.3303E-04  0  0.4261E-04  0 -0.3176E-04  0 -0.3807E-04  0 -0.6036E-04
   (  1,  7, 12)  (  2,  1,  2)  (  1, 12,  1)  (  1, 14,  1)  (  2,  1,  2)
  1 -0.5123E-04  0 -0.2789E-04  0 -0.4610E-04  0 -0.5914E-04  0 -0.3792E-04
   (  1,  7, 12)  (  2,  1,  2)  (  2,  2,  1)  (  2,  1,  2)  (  2,  2,  1)
  1 -0.2448E-04  0  0.3131E-04  0 -0.2303E-04  0 -0.2750E-04  0 -0.4423E-04
   (  1,  7, 12)  (  2,  1,  2)  (  1, 12,  1)  (  1, 14,  1)  (  2,  1,  2)
  1 -0.3762E-04  0 -0.2020E-04  0 -0.3336E-04  0 -0.4361E-04  0 -0.2779E-04
   (  1,  7, 12)  (  2,  1,  2)  (  2,  2,  1)  (  2,  1,  2)  (  2,  2,  1)
  1 -0.1814E-04  0  0.2297E-04  0 -0.1669E-04  0 -0.1986E-04  0 -0.3238E-04
   (  1,  7, 12)  (  2,  1,  2)  (  1, 12,  1)  (  1, 14,  1)  (  2,  1,  2)
  1 -0.2760E-04  0 -0.1464E-04  0 -0.2413E-04  0 -0.3212E-04  0 -0.2034E-04
   (  1,  7, 12)  (  2,  1,  2)  (  2,  2,  1)  (  2,  1,  2)  (  2,  2,  1)
  1 -0.1344E-04  0  0.1683E-04  0 -0.1209E-04  0 -0.1434E-04  0 -0.2367E-04
   (  1,  7, 12)  (  2,  1,  2)  (  1, 12,  1)  (  1, 14,  1)  (  2,  1,  2)
  1 -0.2021E-04  0 -0.1062E-04  0 -0.1744E-04  0 -0.2363E-04  0 -0.1488E-04
   (  1,  7, 12)  (  2,  1,  2)  (  2,  2,  1)  (  2,  1,  2)  (  2,  2,  1)
  1 -0.9944E-05  0  0.1232E-04  0 -0.8762E-05  0 -0.1034E-04  0 -0.1728E-04
   (  1,  7, 12)  (  2,  1,  2)  (  1, 12,  1)  (  1, 14,  1)  (  2,  1,  2)
  1 -0.1478E-04  0 -0.7714E-05  0 -0.1260E-04  0 -0.1737E-04  0 -0.1087E-04
   (  1,  7, 12)  (  2,  1,  2)  (  2,  2,  1)  (  2,  1,  2)  (  2,  2,  1)
  1 -0.7353E-05  0  0.9007E-05  0 -0.6345E-05  0 -0.7458E-05  0 -0.1260E-04
   (  1,  7, 12)  (  2,  1,  2)  (  1, 12,  1)  (  1, 14,  1)  (  2,  1,  2)
  1 -0.1079E-04  0 -0.5603E-05  0 -0.9100E-05  0 -0.1275E-04  0 -0.7935E-05
   (  1,  7, 12)  (  2,  1,  2)  (  2,  2,  1)  (  2,  1,  2)  (  2,  2,  1)
  1 -0.5431E-05  0  0.6577E-05  0 -0.4594E-05  0 -0.5373E-05  0 -0.9172E-05
   (  1,  7, 12)  (  2,  1,  2)  (  1, 12,  1)  (  1, 14,  1)  (  2,  1,  2)
  1 -0.7859E-05  0 -0.4071E-05  0 -0.6569E-05  0 -0.9350E-05  0 -0.5785E-05
   (  1,  7, 12)  (  2,  1,  2)  (  2,  2,  1)  (  2,  1,  2)  (  2,  2,  1)
  1 -0.4007E-05  0  0.4798E-05  0 -0.3324E-05  0 -0.3868E-05  0 -0.6670E-05
   (  1,  7, 12)  (  2,  1,  2)  (  1, 12,  1)  (  1, 14,  1)  (  2,  1,  2)
  1 -0.5716E-05  0 -0.2957E-05  0 -0.4739E-05  0 -0.6852E-05  0 -0.4213E-05
   (  1,  7, 12)  (  2,  1,  2)  (  2,  2,  1)  (  2,  1,  2)  (  2,  2,  1)
  1 -0.2953E-05  0  0.3497E-05  0 -0.2404E-05  0 -0.2781E-05  0 -0.4845E-05
   (  1,  7, 12)  (  2,  1,  2)  (  1, 12,  1)  (  1, 14,  1)  (  2,  1,  2)
  1 -0.4150E-05  0 -0.2147E-05  0 -0.3416E-05  0 -0.5017E-05  0 -0.3065E-05
   (  1,  7, 12)  (  2,  1,  2)  (  2,  2,  1)  (  2,  1,  2)  (  2,  2,  1)
  1 -0.2174E-05  0  0.2547E-05  0 -0.1738E-05  0 -0.1998E-05  0 -0.3516E-05
   (  1,  7, 12)  (  2,  1,  2)  (  1, 12,  1)  (  1, 14,  1)  (  2,  1,  2)
  1 -0.3008E-05  0 -0.1558E-05  0 -0.2461E-05  0 -0.3670E-05  0 -0.2228E-05
   (  1,  7, 12)  (  2,  1,  2)  (  2,  2,  1)  (  2,  1,  2)  (  2,  2,  1)
  1 -0.1599E-05  0  0.1854E-05  0 -0.1255E-05  0 -0.1434E-05  0 -0.2550E-05
   (  1,  7, 12)  (  2,  1,  2)  (  1, 12,  1)  (  1, 14,  1)  (  2,  1,  2)
  1 -0.2177E-05  0 -0.1129E-05  0 -0.1770E-05  0 -0.2683E-05  0 -0.1618E-05
   (  1,  7, 12)  (  2,  1,  2)  (  2,  2,  1)  (  2,  1,  2)  (  2,  2,  1)
  1 -0.1174E-05  0  0.1348E-05  0 -0.9063E-06  0 -0.1028E-05  0 -0.1848E-05
   (  1,  7, 12)  (  2,  1,  2)  (  1, 12,  1)  (  1, 14,  1)  (  2,  1,  2)
  1 -0.1573E-05  0 -0.8162E-06  0 -0.1272E-05  0 -0.1960E-05  0 -0.1174E-05
   (  1,  7, 12)  (  2,  1,  2)  (  2,  2,  1)  (  2,  1,  2)  (  2,  2,  1)
  1 -0.8617E-06  0  0.9802E-06  0 -0.6537E-06  0 -0.7357E-06  0 -0.1338E-05
   (  1,  7, 12)  (  2,  1,  2)  (  1, 12,  1)  (  1, 14,  1)  (  2,  1,  2)
  1 -0.1134E-05  0 -0.5892E-06  0 -0.9129E-06  0 -0.1430E-05  0 -0.8516E-06
   (  1,  7, 12)  (  2,  1,  2)  (  2,  2,  1)  (  2,  1,  2)  (  2,  2,  1)
  1 -0.6318E-06  0  0.7120E-06  0 -0.4713E-06  0 -0.5261E-06  0 -0.9689E-06
   (  1,  7, 12)  (  2,  1,  2)  (  1, 12,  1)  (  1, 14,  1)  (  2,  1,  2)
  1 -0.8171E-06  0 -0.4243E-06  0 -0.6540E-06  0 -0.1043E-05  0 -0.6171E-06
   (  1,  7, 12)  (  2,  1,  2)  (  2,  2,  1)  (  2,  1,  2)  (  2,  2,  1)
  1 -0.4629E-06  0  0.5168E-06  0 -0.3395E-06  0 -0.3757E-06  0 -0.7013E-06
   (  1,  7, 12)  (  2,  1,  2)  (  1, 12,  1)  (  1, 14,  1)  (  2,  1,  2)
  1 -0.5877E-06  0 -0.3049E-06  0 -0.4677E-06  0 -0.7592E-06  0 -0.4469E-06
   (  1,  7, 12)  (  2,  1,  2)  (  2,  2,  1)  (  2,  1,  2)  (  2,  2,  1)
  1 -0.3389E-06  0  0.3747E-06  0 -0.2444E-06  0 -0.2681E-06  0 -0.5075E-06
   (  1,  7, 12)  (  2,  1,  2)  (  1, 12,  1)  (  1, 14,  1)  (  2,  1,  2)
  1 -0.4220E-06  0 -0.2185E-06  0 -0.3339E-06  0 -0.5521E-06  0 -0.3233E-06
   (  1,  7, 12)  (  2,  1,  2)  (  2,  2,  1)  (  2,  1,  2)  (  2,  2,  1)
  1 -0.2479E-06  0  0.2713E-06  0 -0.1758E-06  0 -0.1911E-06  0 -0.3671E-06
   (  1,  7, 12)  (  2,  1,  2)  (  1, 12,  1)  (  1, 14,  1)  (  2,  1,  2)
  1 -0.3025E-06  0 -0.1563E-06  0 -0.2379E-06  0 -0.4009E-06  0 -0.2336E-06
   (  1,  7, 12)  (  2,  1,  2)  (  2,  2,  1)  (  2,  1,  2)  (  2,  2,  1)
  1 -0.1812E-06  0  0.1961E-06  0 -0.1265E-06  0 -0.1360E-06  0 -0.2654E-06
   (  1,  7, 12)  (  2,  1,  2)  (  1, 12,  1)  (  1, 14,  1)  (  2,  1,  2)
  1 -0.2165E-06  0 -0.1115E-06  0 -0.1692E-06  0 -0.2906E-06  0 -0.1686E-06
   (  1,  7, 12)  (  2,  1,  2)  (  2,  2,  1)  (  2,  1,  2)  (  2,  2,  1)
  1 -0.1324E-06  0  0.1414E-06  0 -0.9092E-07  0 -0.9677E-07  0 -0.1918E-06
   (  1,  7, 12)  (  2,  1,  2)  (  1, 12,  1)  (  1, 14,  1)  (  2,  1,  2)
  1 -0.1546E-06  0 -0.7936E-07  0 -0.1200E-06  0 -0.2103E-06  0 -0.1215E-06
   (  1,  7, 12)  (  2,  1,  2)  (  2,  2,  1)  (  2,  1,  2)  (  2,  2,  1)
  1 -0.9661E-07  0  0.1018E-06  0 -0.6536E-07  0 -0.6878E-07  0 -0.1385E-06
   (  1,  7, 12)  (  2,  1,  2)  (  1, 12,  1)  (  1, 14,  1)  (  2,  1,  2)
  1 -0.1102E-06  0 -0.5639E-07  0 -0.8504E-07  0 -0.1518E-06  0 -0.8735E-07
   (  1,  7, 12)  (  2,  1,  2)  (  2,  2,  1)  (  2,  1,  2)  (  2,  2,  1)
  1 -0.7045E-07  0  0.7299E-07  0 -0.4699E-07  0 -0.4884E-07  0 -0.1000E-06
   (  1,  7, 12)  (  2,  1,  2)  (  1, 12,  1)  (  1, 14,  1)  (  2,  1,  2)
  1 -0.7838E-07  0 -0.4000E-07  0 -0.6012E-07  0 -0.1093E-06  0 -0.6266E-07
   (  1,  7, 12)  (  2,  1,  2)  (  2,  2,  1)  (  2,  1,  2)  (  2,  2,  1)
  1 -0.5133E-07  0  0.5218E-07  0 -0.3379E-07  0 -0.3512E-07  0 -0.7214E-07
   (  1,  7, 12)  (  2,  1,  2)  (  1, 12,  1)  (  2,  2,  1)  (  2,  1,  2)
  1 -0.5560E-07  0 -0.2833E-07  0 -0.4243E-07  0 -0.7846E-07  0 -0.4483E-07
   (  1,  7, 12)  (  2,  1,  2)  (  2,  2,  1)  (  2,  1,  2)  (  2,  2,  1)
  1 -0.3735E-07  0  0.3716E-07  0 -0.2432E-07  0 -0.2541E-07  0 -0.5200E-07
   (  1,  7, 12)  (  2,  1,  2)  (  1, 12,  1)  (  2,  2,  1)  (  2,  1,  2)
  1 -0.3934E-07  0 -0.2005E-07  0 -0.2990E-07  0 -0.5615E-07  0 -0.3198E-07
   (  1,  7, 12)  (  2,  1,  2)  (  2,  2,  1)  (  2,  1,  2)  (  2,  2,  1)
  1 -0.2715E-07  0 -0.2673E-07  0 -0.1752E-07  0 -0.1840E-07  0 -0.3745E-07
   (  1,  7, 12)  (  1, 11,  4)  (  1, 12,  1)  (  2,  2,  1)  (  2,  1,  2)
  1 -0.2775E-07  0 -0.1418E-07  0 -0.2104E-07  0 -0.4005E-07  0 -0.2273E-07
   (  1,  7, 12)  (  2,  1,  2)  (  2,  2,  1)  (  2,  1,  2)  (  2,  2,  1)
  1 -0.1971E-07  0 -0.1947E-07  0 -0.1263E-07  0 -0.1333E-07  0 -0.2695E-07
   (  1,  7, 12)  (  1, 11,  4)  (  1, 12,  1)  (  2,  2,  1)  (  2,  1,  2)
  1 -0.1952E-07  0 -0.1002E-07  0 -0.1479E-07  0 -0.2845E-07  0 -0.1610E-07
   (  1,  7, 12)  (  2,  1,  2)  (  2,  2,  1)  (  2,  1,  2)  (  2,  2,  1)
  1 -0.1429E-07  0 -0.1416E-07  0 -0.9129E-08  1 -0.7413E-08
   (  1,  7, 12)  (  1, 11,  4)  (  1, 12,  1)  (  2,  2,  1)

 MAXIMUM RESIDUAL FOR EACH ITERATION (1 INDICATES THE FIRST INNER ITERATION):

    RESIDUAL       RESIDUAL       RESIDUAL       RESIDUAL       RESIDUAL    
   LAYER,ROW,COL  LAYER,ROW,COL  LAYER,ROW,COL  LAYER,ROW,COL  LAYER,ROW,COL
 ---------------------------------------------------------------------------
  1   8280.      0  -7101.      0   6186.      0   3941.      0  -2912.    
   (  2,  2, 27)  (  2, 20, 28)  (  2, 20, 28)  (  2, 20, 27)  (  2, 20, 27)
  1   2265.      0  -2279.      0   2388.      0  -2386.      0  -2147.    
   (  2,  2,  1)  (  2,  2,  1)  (  2,  2,  1)  (  2,  2,  1)  (  2,  1,  2)
  1   1651.      0  -1668.      0  -1285.      0   1077.      0   942.7    
   (  2,  1,  2)  (  2,  1,  2)  (  2,  2,  1)  (  2,  2,  1)  (  2,  1,  2)
  1   982.1      0   1110.      0   1266.      0   1249.      0  -1439.    
   (  2,  2,  1)  (  2,  1,  2)  (  2,  2,  1)  (  2,  1,  2)  (  2,  1,  2)
  1   1237.      0  -1201.      0   1037.      0   850.7      0   704.3    
   (  2,  1,  2)  (  2,  1,  2)  (  2,  1,  2)  (  2,  2,  1)  (  2,  1,  2)
  1   768.6      0   855.6      0   999.7      0  -1055.      0  -1179.    
   (  2,  2,  1)  (  2,  1,  2)  (  2,  2,  1)  (  2,  2,  1)  (  2,  1,  2)
  1   987.6      0   888.5      0   778.6      0   646.5      0   806.4    
   (  2,  1,  2)  (  2,  2,  1)  (  2,  1,  2)  (  2,  2,  1)  (  1,  7, 12)
  1  -650.0      0   631.8      0   759.5      0  -845.6      0  -948.8    
   (  1,  7, 12)  (  2,  1,  2)  (  2,  2,  1)  (  2,  2,  1)  (  2,  1,  2)
  1   782.5      0   653.9      0   575.1      0  -550.4      0   776.0    
   (  2,  1,  2)  (  2,  2,  1)  (  2,  1,  2)  (  1,  7, 12)  (  1,  7, 12)
  1  -561.5      0   467.1      0   570.9      0  -668.9      0  -741.1    
   (  1,  7, 12)  (  2,  1,  2)  (  2,  2,  1)  (  2,  2,  1)  (  2,  1,  2)
  1   608.6      0   483.0      0   425.8      0  -466.8      0   656.1    
   (  2,  1,  2)  (  2,  2,  1)  (  2,  1,  2)  (  1,  7, 12)  (  1,  7, 12)
  1  -443.0      0   348.2      0   426.9      0  -520.0      0  -563.8    
   (  1,  7, 12)  (  2,  1,  2)  (  2,  2,  1)  (  2,  2,  1)  (  2,  1,  2)
  1  -466.4      0   358.2      0   317.3      0  -363.5      0   514.6    
   (  2,  2,  1)  (  2,  2,  1)  (  2,  1,  2)  (  1,  7, 12)  (  1,  7, 12)
  1  -333.2      0   260.6      0   317.5      0  -397.6      0  -421.3    
   (  1,  7, 12)  (  2,  1,  2)  (  2,  2,  1)  (  2,  2,  1)  (  2,  1,  2)
  1  -353.4      0   265.6      0   237.1      0  -271.9      0   387.6    
   (  2,  2,  1)  (  2,  2,  1)  (  2,  1,  2)  (  1,  7, 12)  (  1,  7, 12)
  1  -244.9      0   195.0      0   235.0      0  -300.2      0  -311.3    
   (  1,  7, 12)  (  2,  1,  2)  (  2,  2,  1)  (  2,  2,  1)  (  2,  1,  2)
  1  -264.9      0   196.4      0   177.1      0  -199.8      0   285.6    
   (  2,  2,  1)  (  2,  2,  1)  (  2,  1,  2)  (  1,  7, 12)  (  1,  7, 12)
  1  -177.8      0   145.6      0   173.2      0  -224.5      0  -228.3    
   (  1,  7, 12)  (  2,  1,  2)  (  2,  2,  1)  (  2,  2,  1)  (  2,  1,  2)
  1  -196.8      0   144.9      0   132.1      0  -145.4      0   207.6    
   (  2,  2,  1)  (  2,  2,  1)  (  2,  1,  2)  (  1,  7, 12)  (  1,  7, 12)
  1  -128.2      0   108.4      0   127.3      0  -166.6      0  -166.4    
   (  1,  7, 12)  (  2,  1,  2)  (  2,  2,  1)  (  2,  2,  1)  (  2,  1,  2)
  1  -145.1      0   106.7      0   98.41      0  -105.2      0   149.4    
   (  2,  2,  1)  (  2,  2,  1)  (  2,  1,  2)  (  1,  7, 12)  (  1,  7, 12)
  1  -91.95      0   80.58      0   93.44      0  -122.7      0  -120.5    
   (  1,  7, 12)  (  2,  1,  2)  (  2,  2,  1)  (  2,  2,  1)  (  2,  1,  2)
  1  -106.1      0   78.49      0   73.31      0  -75.82      0   106.6    
   (  2,  2,  1)  (  2,  2,  1)  (  2,  1,  2)  (  1,  7, 12)  (  1,  7, 12)
  1  -65.68      0   59.87      0   68.56      0  -89.68      0  -86.71    
   (  1,  7, 12)  (  2,  1,  2)  (  2,  2,  1)  (  2,  2,  1)  (  2,  1,  2)
  1   77.00      0   57.78      0   54.71      0  -54.43      0   75.32    
   (  2,  1,  2)  (  2,  2,  1)  (  2,  1,  2)  (  1,  7, 12)  (  1,  7, 12)
  1  -46.75      0   44.57      0   50.36      0   65.55      0  -61.92    
   (  1,  7, 12)  (  2,  1,  2)  (  2,  2,  1)  (  2,  1,  2)  (  2,  1,  2)
  1   56.17      0   42.60      0   40.98      0  -38.94      0   52.68    
   (  2,  1,  2)  (  2,  2,  1)  (  2,  1,  2)  (  1,  7, 12)  (  1,  7, 12)
  1  -33.17      0   33.35      0   37.07      0   47.81      0  -43.89    
   (  1,  7, 12)  (  2,  1,  2)  (  2,  2,  1)  (  2,  1,  2)  (  2,  1,  2)
  1   40.79      0   31.50      0   30.86      0  -27.73      0   36.42    
   (  2,  1,  2)  (  2,  2,  1)  (  2,  1,  2)  (  1,  7, 12)  (  1,  7, 12)
  1  -23.46      0   25.17      0   27.36      0   34.68      0   31.21    
   (  1,  7, 12)  (  2,  1,  2)  (  2,  2,  1)  (  2,  1,  2)  (  2,  2,  1)
  1   29.47      0   23.34      0   23.36      0  -19.63      0   24.89    
   (  2,  1,  2)  (  2,  2,  1)  (  2,  1,  2)  (  1,  7, 12)  (  1,  7, 12)
  1  -16.53      0   19.19      0   20.22      0   25.00      0   22.80    
   (  1,  7, 12)  (  2,  1,  2)  (  2,  2,  1)  (  2,  1,  2)  (  2,  2,  1)
  1   21.19      0   17.29      0   17.75      0  -13.80      0   16.84    
   (  2,  1,  2)  (  2,  2,  1)  (  2,  1,  2)  (  1,  7, 12)  (  1,  7, 12)
  1  -11.61      0   14.74      0   14.93      0   17.93      0   16.70    
   (  1,  7, 12)  (  2,  1,  2)  (  2,  2,  1)  (  2,  1,  2)  (  2,  2,  1)
  1   15.18      0   12.76      0   13.50      0  -9.653      0   11.32    
   (  2,  1,  2)  (  2,  2,  1)  (  2,  1,  2)  (  1,  7, 12)  (  1,  7, 12)
  1  -8.111      0   11.35      0   10.97      0   12.82      0   12.46    
   (  1,  7, 12)  (  2,  1,  2)  (  2,  2,  1)  (  2,  1,  2)  (  1,  7, 12)
  1   10.84      0   9.360      0   10.25      0  -6.736      0   7.576    
   (  2,  1,  2)  (  2,  2,  1)  (  2,  1,  2)  (  1,  7, 12)  (  1,  7, 12)
  1  -5.643      0   8.721      0   8.023      0   9.156      0   9.357    
   (  1,  7, 12)  (  2,  1,  2)  (  2,  2,  1)  (  2,  1,  2)  (  1,  7, 12)
  1   7.740      0   6.823      0   7.762      0  -4.704      0   5.065    
   (  2,  1,  2)  (  2,  2,  1)  (  2,  1,  2)  (  1,  7, 12)  (  1,  7, 12)
  1  -4.090      0   6.661      0   5.836      0   6.546      0   6.997    
   (  2,  1,  2)  (  2,  1,  2)  (  2,  2,  1)  (  2,  1,  2)  (  1,  7, 12)
  1   5.531      0   4.951      0   5.855      0  -3.295      0  -3.617    
   (  2,  1,  2)  (  2,  2,  1)  (  2,  1,  2)  (  1,  7, 12)  (  2,  2,  1)
  1  -3.106      0   5.054      0   4.230      0   4.690      0   5.196    
   (  2,  1,  2)  (  2,  1,  2)  (  2,  2,  1)  (  2,  1,  2)  (  1,  7, 12)
  1   3.962      0   3.582      0   4.400      0  -2.468      0  -2.682    
   (  2,  1,  2)  (  2,  2,  1)  (  2,  1,  2)  (  2,  1,  2)  (  2,  2,  1)
  1  -2.349      0   3.812      0   3.060      0   3.369      0   3.830    
   (  2,  1,  2)  (  2,  1,  2)  (  2,  2,  1)  (  2,  1,  2)  (  1,  7, 12)
  1   2.845      0   2.587      0   3.293      0  -1.850      0  -1.987    
   (  2,  1,  2)  (  2,  2,  1)  (  2,  1,  2)  (  2,  1,  2)  (  2,  2,  1)
  1  -1.770      0   2.861      0   2.211      0   2.427      0   2.808    
   (  2,  1,  2)  (  2,  1,  2)  (  2,  2,  1)  (  2,  1,  2)  (  1,  7, 12)
  1   2.050      0   1.868      0   2.457      0  -1.384      0  -1.470    
   (  2,  1,  2)  (  2,  2,  1)  (  2,  1,  2)  (  2,  1,  2)  (  2,  2,  1)
  1  -1.329      0   2.138      0   1.597      0   1.753      0   2.050    
   (  2,  1,  2)  (  2,  1,  2)  (  2,  2,  1)  (  2,  1,  2)  (  1,  7, 12)
  1   1.481      0   1.348      0   1.827      0  -1.034      0  -1.087    
   (  2,  1,  2)  (  2,  2,  1)  (  2,  1,  2)  (  2,  1,  2)  (  2,  2,  1)
  1 -0.9949      0   1.592      0   1.153      0   1.270      0   1.494    
   (  2,  1,  2)  (  2,  1,  2)  (  2,  2,  1)  (  2,  1,  2)  (  1,  7, 12)
  1   1.073      0  0.9731      0   1.356      0 -0.7710      0 -0.8024    
   (  2,  1,  2)  (  2,  2,  1)  (  2,  1,  2)  (  2,  1,  2)  (  2,  2,  1)
  1 -0.7431      0   1.182      0  0.8330      0  0.9222      0   1.089    
   (  2,  1,  2)  (  2,  1,  2)  (  2,  2,  1)  (  2,  1,  2)  (  1,  7, 12)
  1  0.7797      0  0.7028      0   1.004      0 -0.5741      0 -0.5916    
   (  2,  1,  2)  (  2,  2,  1)  (  2,  1,  2)  (  2,  1,  2)  (  2,  2,  1)
  1 -0.5540      0  0.8750      0  0.6020      0  0.6711      0  0.7943    
   (  2,  1,  2)  (  2,  1,  2)  (  2,  2,  1)  (  2,  1,  2)  (  1,  7, 12)
  1  0.5675      0  0.5078      0  0.7418      0 -0.4271      0 -0.4356    
   (  2,  1,  2)  (  2,  2,  1)  (  2,  1,  2)  (  2,  1,  2)  (  2,  2,  1)
  1 -0.4122      0  0.6466      0  0.4353      0  0.4893      0  0.5803    
   (  2,  1,  2)  (  2,  1,  2)  (  2,  2,  1)  (  2,  1,  2)  (  1,  7, 12)
  1  0.4138      0  0.3671      0  0.5473      0 -0.3173      0 -0.3204    
   (  2,  1,  2)  (  2,  2,  1)  (  2,  1,  2)  (  2,  1,  2)  (  2,  2,  1)
  1 -0.3062      0  0.4769      0  0.3150      0  0.3572      0  0.4247    
   (  2,  1,  2)  (  2,  1,  2)  (  2,  2,  1)  (  2,  1,  2)  (  1,  7, 12)
  1  0.3021      0  0.2655      0  0.4032      0 -0.2355      0 -0.2354    
   (  2,  1,  2)  (  2,  2,  1)  (  2,  1,  2)  (  2,  1,  2)  (  2,  2,  1)
  1 -0.2272      0  0.3512      0  0.2280      0  0.2611      0  0.3115    
   (  2,  1,  2)  (  2,  1,  2)  (  2,  2,  1)  (  2,  1,  2)  (  1,  7, 12)
  1  0.2209      0  0.1921      0  0.2967      0 -0.1746      0 -0.1728    
   (  2,  1,  2)  (  2,  2,  1)  (  2,  1,  2)  (  2,  1,  2)  (  2,  2,  1)
  1 -0.1683      0  0.2583      0  0.1651      0  0.1910      0  0.2288    
   (  2,  1,  2)  (  2,  1,  2)  (  2,  2,  1)  (  2,  1,  2)  (  1,  7, 12)
  1  0.1616      0  0.1391      0  0.2180      0 -0.1293      0 -0.1267    
   (  2,  1,  2)  (  2,  2,  1)  (  2,  1,  2)  (  2,  1,  2)  (  2,  2,  1)
  1 -0.1245      0  0.1897      0  0.1196      0  0.1398      0  0.1683    
   (  2,  1,  2)  (  2,  1,  2)  (  2,  2,  1)  (  2,  1,  2)  (  1,  7, 12)
  1  0.1183      0  0.1007      0  0.1600      0 -0.9571E-01  0 -0.9283E-01
   (  2,  1,  2)  (  2,  2,  1)  (  2,  1,  2)  (  2,  1,  2)  (  2,  2,  1)
  1 -0.9201E-01  0  0.1391      0  0.8666E-01  0  0.1024      0  0.1239    
   (  2,  1,  2)  (  2,  1,  2)  (  2,  2,  1)  (  2,  1,  2)  (  1,  7, 12)
  1  0.8658E-01  0  0.7291E-01  0  0.1173      0 -0.7076E-01  0 -0.6797E-01
   (  2,  1,  2)  (  2,  2,  1)  (  2,  1,  2)  (  2,  1,  2)  (  2,  2,  1)
  1 -0.6792E-01  0  0.1019      0  0.6281E-01  0  0.7498E-01  0  0.9130E-01
   (  2,  1,  2)  (  2,  1,  2)  (  2,  2,  1)  (  2,  1,  2)  (  1,  7, 12)
  1  0.6340E-01  0  0.5280E-01  0  0.8589E-01  0 -0.5227E-01  0 -0.4972E-01
   (  2,  1,  2)  (  2,  2,  1)  (  2,  1,  2)  (  2,  1,  2)  (  2,  2,  1)
  1 -0.5008E-01  0  0.7455E-01  0  0.4552E-01  0  0.5490E-01  0  0.6727E-01
   (  2,  1,  2)  (  2,  1,  2)  (  2,  2,  1)  (  2,  1,  2)  (  1,  7, 12)
  1  0.4642E-01  0  0.3824E-01  0  0.6283E-01  0 -0.3857E-01  0 -0.3635E-01
   (  2,  1,  2)  (  2,  2,  1)  (  2,  1,  2)  (  2,  1,  2)  (  2,  2,  1)
  1 -0.3689E-01  0  0.5448E-01  0  0.3299E-01  0  0.4018E-01  0  0.4954E-01
   (  2,  1,  2)  (  2,  1,  2)  (  2,  2,  1)  (  2,  1,  2)  (  1,  7, 12)
  1  0.3398E-01  0  0.2769E-01  0  0.4591E-01  0 -0.2844E-01  0 -0.2655E-01
   (  2,  1,  2)  (  2,  2,  1)  (  2,  1,  2)  (  2,  1,  2)  (  2,  2,  1)
  1 -0.2715E-01  0  0.3977E-01  0  0.2391E-01  0  0.2940E-01  0  0.3647E-01
   (  2,  1,  2)  (  2,  1,  2)  (  2,  2,  1)  (  2,  1,  2)  (  1,  7, 12)
  1  0.2487E-01  0  0.2004E-01  0  0.3350E-01  0 -0.2095E-01  0 -0.1938E-01
   (  2,  1,  2)  (  2,  2,  1)  (  2,  1,  2)  (  2,  1,  2)  (  2,  2,  1)
  1 -0.1996E-01  0  0.2900E-01  0  0.1732E-01  0  0.2149E-01  0  0.2683E-01
   (  2,  1,  2)  (  2,  1,  2)  (  2,  2,  1)  (  2,  1,  2)  (  1,  7, 12)
  1  0.1819E-01  0  0.1451E-01  0  0.2442E-01  0 -0.1542E-01  0 -0.1413E-01
   (  2,  1,  2)  (  2,  2,  1)  (  2,  1,  2)  (  2,  1,  2)  (  2,  2,  1)
  1 -0.1465E-01  0  0.2112E-01  0  0.1254E-01  0  0.1570E-01  0  0.1971E-01
   (  2,  1,  2)  (  2,  1,  2)  (  2,  2,  1)  (  2,  1,  2)  (  1,  7, 12)
  1  0.1329E-01  0  0.1049E-01  0  0.1779E-01  0 -0.1134E-01  0 -0.1030E-01
   (  2,  1,  2)  (  2,  2,  1)  (  2,  1,  2)  (  2,  1,  2)  (  2,  2,  1)
  1 -0.1075E-01  0  0.1536E-01  0  0.9082E-02  0  0.1146E-01  0  0.1446E-01
   (  2,  1,  2)  (  2,  1,  2)  (  2,  2,  1)  (  2,  1,  2)  (  1,  7, 12)
  1  0.9710E-02  0  0.7588E-02  0  0.1294E-01  0 -0.8332E-02  0 -0.7499E-02
   (  2,  1,  2)  (  2,  2,  1)  (  2,  1,  2)  (  2,  1,  2)  (  2,  2,  1)
  1 -0.7882E-02  0  0.1116E-01  0  0.6572E-02  0  0.8360E-02  0  0.1060E-01
   (  2,  1,  2)  (  2,  1,  2)  (  2,  2,  1)  (  2,  1,  2)  (  1,  7, 12)
  1  0.7087E-02  0  0.5484E-02  0  0.9398E-02  0 -0.6118E-02  0 -0.5455E-02
   (  2,  1,  2)  (  2,  2,  1)  (  2,  1,  2)  (  2,  1,  2)  (  2,  2,  1)
  1 -0.5772E-02  0  0.8100E-02  0  0.4754E-02  0  0.6091E-02  0  0.7755E-02
   (  2,  1,  2)  (  2,  1,  2)  (  2,  2,  1)  (  2,  1,  2)  (  1,  7, 12)
  1  0.5168E-02  0  0.3962E-02  0  0.6820E-02  0 -0.4489E-02  0 -0.3965E-02
   (  2,  1,  2)  (  2,  2,  1)  (  2,  1,  2)  (  2,  1,  2)  (  2,  2,  1)
  1 -0.4224E-02  0  0.5871E-02  0  0.3437E-02  0  0.4434E-02  0  0.5666E-02
   (  2,  1,  2)  (  2,  1,  2)  (  2,  2,  1)  (  2,  1,  2)  (  1,  7, 12)
  1 -0.3768E-02  0  0.2861E-02  0  0.4943E-02  0 -0.3291E-02  0 -0.2879E-02
   (  1,  7, 12)  (  2,  2,  1)  (  2,  1,  2)  (  2,  1,  2)  (  2,  2,  1)
  1 -0.3089E-02  0  0.4251E-02  0  0.2483E-02  0  0.3224E-02  0  0.4132E-02
   (  2,  1,  2)  (  2,  1,  2)  (  2,  2,  1)  (  2,  1,  2)  (  1,  7, 12)
  1 -0.2749E-02  0  0.2065E-02  0  0.3579E-02  0 -0.2412E-02  0 -0.2088E-02
   (  1,  7, 12)  (  2,  2,  1)  (  2,  1,  2)  (  2,  1,  2)  (  2,  2,  1)
  1 -0.2257E-02  0  0.3075E-02  0  0.1793E-02  0 -0.2345E-02  0  0.3008E-02
   (  2,  1,  2)  (  2,  1,  2)  (  2,  2,  1)  (  1,  7, 12)  (  1,  7, 12)
  1 -0.2002E-02  0  0.1490E-02  0  0.2588E-02  0 -0.1766E-02  0 -0.1514E-02
   (  1,  7, 12)  (  2,  2,  1)  (  2,  1,  2)  (  2,  1,  2)  (  2,  2,  1)
  1 -0.1648E-02  0  0.2221E-02  0  0.1294E-02  0 -0.1710E-02  0  0.2186E-02
   (  2,  1,  2)  (  2,  1,  2)  (  2,  2,  1)  (  1,  7, 12)  (  1,  7, 12)
  1 -0.1456E-02  0  0.1074E-02  0  0.1869E-02  0 -0.1293E-02  0 -0.1096E-02
   (  1,  7, 12)  (  2,  2,  1)  (  2,  1,  2)  (  2,  1,  2)  (  2,  2,  1)
  1 -0.1202E-02  0  0.1603E-02  0  0.9336E-03  0 -0.1244E-02  0  0.1586E-02
   (  2,  1,  2)  (  2,  1,  2)  (  2,  2,  1)  (  1,  7, 12)  (  1,  7, 12)
  1 -0.1056E-02  0  0.7740E-03  0  0.1349E-02  0 -0.9455E-03  0 -0.7927E-03
   (  1,  7, 12)  (  2,  2,  1)  (  2,  1,  2)  (  2,  1,  2)  (  2,  2,  1)
  1 -0.8763E-03  0  0.1156E-02  0  0.6731E-03  0 -0.9035E-03  0  0.1148E-02
   (  2,  1,  2)  (  2,  1,  2)  (  2,  2,  1)  (  1,  7, 12)  (  1,  7, 12)
  1 -0.7650E-03  0  0.5576E-03  0  0.9720E-03  0 -0.6910E-03  0 -0.5728E-03
   (  1,  7, 12)  (  2,  2,  1)  (  2,  1,  2)  (  2,  1,  2)  (  2,  2,  1)
  1 -0.6381E-03  0  0.8323E-03  0  0.4851E-03  0 -0.6550E-03  0  0.8293E-03
   (  2,  1,  2)  (  2,  1,  2)  (  2,  2,  1)  (  1,  7, 12)  (  1,  7, 12)
  1 -0.5531E-03  0  0.4015E-03  0  0.6997E-03  0 -0.5045E-03  0 -0.4134E-03
   (  1,  7, 12)  (  2,  2,  1)  (  2,  1,  2)  (  2,  1,  2)  (  2,  2,  1)
  1 -0.4642E-03  0  0.5988E-03  0  0.3495E-03  0 -0.4741E-03  0  0.5980E-03
   (  2,  1,  2)  (  2,  1,  2)  (  2,  2,  1)  (  1,  7, 12)  (  1,  7, 12)
  1 -0.3991E-03  0  0.2890E-03  0  0.5032E-03  0 -0.3680E-03  0 -0.2981E-03
   (  1,  7, 12)  (  2,  2,  1)  (  2,  1,  2)  (  2,  1,  2)  (  2,  2,  1)
  1 -0.3373E-03  0  0.4302E-03  0  0.2517E-03  0 -0.3424E-03  0  0.4302E-03
   (  2,  1,  2)  (  2,  1,  2)  (  2,  2,  1)  (  1,  7, 12)  (  1,  7, 12)
  1  0.2884E-03  0  0.2080E-03  0  0.3614E-03  0 -0.2680E-03  0 -0.2147E-03
   (  2,  1,  2)  (  2,  2,  1)  (  2,  1,  2)  (  2,  1,  2)  (  2,  2,  1)
  1 -0.2447E-03  0  0.3088E-03  0  0.1812E-03  0 -0.2469E-03  0  0.3088E-03
   (  2,  1,  2)  (  2,  1,  2)  (  2,  2,  1)  (  1,  7, 12)  (  1,  7, 12)
  1  0.2081E-03  0  0.1496E-03  0  0.2593E-03  0 -0.1949E-03  0 -0.1545E-03
   (  2,  1,  2)  (  2,  2,  1)  (  2,  1,  2)  (  2,  1,  2)  (  2,  2,  1)
  1 -0.1772E-03  0  0.2214E-03  0  0.1304E-03  0 -0.1777E-03  0  0.2212E-03
   (  2,  1,  2)  (  2,  1,  2)  (  2,  2,  1)  (  1,  7, 12)  (  1,  7, 12)
  1  0.1500E-03  0  0.1076E-03  0  0.1858E-03  0 -0.1415E-03  0 -0.1110E-03
   (  2,  1,  2)  (  2,  2,  1)  (  2,  1,  2)  (  2,  1,  2)  (  2,  2,  1)
  1 -0.1280E-03  0  0.1585E-03  0  0.9380E-04  0 -0.1276E-03  0  0.1580E-03
   (  2,  1,  2)  (  2,  1,  2)  (  2,  2,  1)  (  1,  7, 12)  (  1,  7, 12)
  1  0.1080E-03  0  0.7732E-04  0  0.1330E-03  0 -0.1025E-03  0 -0.7962E-04
   (  2,  1,  2)  (  2,  2,  1)  (  2,  1,  2)  (  2,  1,  2)  (  2,  2,  1)
  1 -0.9233E-04  0  0.1133E-03  0  0.6747E-04  0 -0.9149E-04  0  0.1125E-03
   (  2,  1,  2)  (  2,  1,  2)  (  2,  2,  1)  (  1,  7, 12)  (  1,  7, 12)
  1  0.7766E-04  0  0.5557E-04  0  0.9509E-04  0 -0.7468E-04  0 -0.5704E-04
   (  2,  1,  2)  (  2,  2,  1)  (  2,  1,  2)  (  1,  7, 12)  (  2,  2,  1)
  1 -0.6670E-04  0  0.8093E-04  0  0.4852E-04  0 -0.6543E-04  0  0.7995E-04
   (  1,  7, 12)  (  2,  1,  2)  (  2,  2,  1)  (  1,  7, 12)  (  1,  7, 12)
  1  0.5580E-04  0  0.3993E-04  0  0.6790E-04  0 -0.5460E-04  0 -0.4080E-04
   (  2,  1,  2)  (  2,  2,  1)  (  2,  1,  2)  (  1,  7, 12)  (  2,  2,  1)
  1 -0.4895E-04  0  0.5772E-04  0  0.3489E-04  0 -0.4669E-04  0  0.5663E-04
   (  1,  7, 12)  (  2,  1,  2)  (  2,  2,  1)  (  1,  7, 12)  (  1,  7, 12)
  1  0.4006E-04  0  0.2870E-04  0  0.4843E-04  0 -0.3985E-04  0 -0.2914E-04
   (  2,  1,  2)  (  2,  2,  1)  (  2,  1,  2)  (  1,  7, 12)  (  2,  2,  1)
  1 -0.3586E-04  0  0.4112E-04  0  0.2509E-04  0 -0.3324E-04  0  0.3998E-04
   (  1,  7, 12)  (  2,  1,  2)  (  2,  2,  1)  (  1,  7, 12)  (  1,  7, 12)
  1  0.2874E-04  0  0.2063E-04  0  0.3450E-04  0 -0.2902E-04  0 -0.2077E-04
   (  2,  1,  2)  (  2,  2,  1)  (  2,  1,  2)  (  1,  7, 12)  (  2,  2,  1)
  1 -0.2622E-04  0  0.2925E-04  0  0.1805E-04  0  0.2372E-04  0  0.2819E-04
   (  1,  7, 12)  (  2,  1,  2)  (  2,  2,  1)  (  2,  1,  2)  (  2,  2,  1)
  1  0.2060E-04  0  0.1483E-04  0  0.2455E-04  0 -0.2109E-04  0 -0.1478E-04
   (  2,  1,  2)  (  2,  2,  1)  (  2,  1,  2)  (  1,  7, 12)  (  2,  2,  1)
  1 -0.1913E-04  0  0.2079E-04  0  0.1299E-04  0  0.1696E-04  0  0.2014E-04
   (  1,  7, 12)  (  2,  1,  2)  (  2,  2,  1)  (  2,  1,  2)  (  2,  2,  1)
  1  0.1476E-04  0  0.1067E-04  0  0.1746E-04  0 -0.1529E-04  0 -0.1049E-04
   (  2,  1,  2)  (  2,  2,  1)  (  2,  1,  2)  (  1,  7, 12)  (  2,  2,  1)
  1 -0.1392E-04  0  0.1476E-04  0  0.9356E-05  0  0.1213E-04  0  0.1438E-04
   (  1,  7, 12)  (  2,  1,  2)  (  2,  2,  1)  (  2,  1,  2)  (  2,  2,  1)
  1  0.1057E-04  0  0.7689E-05  0  0.1240E-04  0 -0.1106E-04  0 -0.7435E-05
   (  2,  1,  2)  (  2,  2,  1)  (  2,  1,  2)  (  1,  7, 12)  (  2,  2,  1)
  1 -0.1011E-04  0  0.1047E-04  0  0.6746E-05  1  0.8631E-05
   (  1,  7, 12)  (  2,  1,  2)  (  2,  2,  1)  (  2,  1,  2)


1
              HEAD IN LAYER   1 AT END OF TIME STEP   1 IN STRESS PERIOD    1
  ---------------------------------------------------------------------------

            1           2           3           4           5           6           7           8           9          10
           11          12          13          14          15          16          17          18          19          20
           21          22          23          24          25          26          27          28          29          30
 ........................................................................................................................
   1    19.36       19.27       19.10       18.85       18.52       18.11       17.64       17.11       16.54       15.94    
        15.35       14.78       14.23       13.71       13.20       12.68       12.13       11.54       10.89       10.18    
        9.393       8.533       7.594       6.571       5.458       4.254       2.953       1.552      7.7897E-02   0.000    
   2    19.36       19.27       19.10       18.85       18.51       18.09       17.61       17.06       16.47       15.85    
        15.24       14.66       14.12       13.62       13.13       12.62       12.09       11.50       10.86       10.15    
        9.375       8.520       7.583       6.562       5.452       4.250       2.950       1.551      7.7864E-02   0.000    
   3    19.36       19.28       19.10       18.84       18.49       18.06       17.55       16.97       16.34       15.67    
        15.01       14.41       13.88       13.42       12.97       12.51       12.00       11.44       10.81       10.11    
        9.341       8.492       7.561       6.545       5.440       4.241       2.945       1.548      7.7802E-02   0.000    
   4    19.37       19.28       19.10       18.83       18.47       18.02       17.48       16.85       16.15       15.40    
        14.65       13.98       13.50       13.12       12.75       12.34       11.88       11.34       10.74       10.05    
        9.293       8.452       7.529       6.521       5.422       4.230       2.939       1.546      7.7724E-02   0.000    
   5    19.38       19.29       19.10       18.83       18.45       17.98       17.40       16.72       15.93       15.04    
        14.10       13.27       12.93       12.71       12.47       12.15       11.74       11.24       10.65       9.980    
        9.231       8.401       7.488       6.489       5.400       4.216       2.932       1.543      7.7653E-02   0.000    
   6    19.40       19.31       19.12       18.83       18.45       17.95       17.35       16.61       15.72       14.64    
        13.34       11.90       12.12       12.25       12.18       11.96       11.60       11.12       10.55       9.895    
        9.157       8.338       7.438       6.451       5.374       4.202       2.930       1.542      7.7622E-02   0.000    
   7    19.43       19.34       19.14       18.85       18.46       17.96       17.33       16.56       15.60       14.35    
        12.43       5.656       11.14       11.87       11.97       11.81       11.48       11.02       10.45       9.800    
        9.070       8.264       7.378       6.407       5.345       4.189       2.950       1.543      7.7658E-02   0.000    
   8    19.47       19.38       19.18       18.89       18.50       18.00       17.37       16.61       15.68       14.54    
        13.16       11.62       11.76       11.94       11.93       11.75       11.40       10.92       10.35       9.691    
        8.967       8.175       7.308       6.356       5.313       4.170       2.918       1.539      7.7560E-02   0.000    
   9    19.52       19.43       19.24       18.95       18.56       18.07       17.47       16.74       15.88       14.88    
        13.77       12.70       12.05       12.07       11.99       11.75       11.36       10.84       10.23       9.558    
        8.839       8.068       7.227       6.302       5.282       4.160       2.922       1.545      7.7706E-02   0.000    
  10    19.58       19.49       19.30       19.02       18.65       18.17       17.59       16.91       16.12       15.22    
        14.24       13.11       10.65       12.14       12.12       11.82       11.36       10.77       10.09       9.375    
        8.671       7.938       7.137       6.245       5.256       4.166       2.967       1.565      7.8260E-02   0.000    
  11    19.65       19.56       19.38       19.11       18.75       18.29       17.74       17.10       16.37       15.57    
        14.71       13.84       12.98       12.72       12.40       11.96       11.39       10.70       9.899       9.086    
        8.439       7.784       7.041       6.190       5.233       4.188       3.198       1.599      7.9156E-02   0.000    
  12    19.72       19.63       19.46       19.20       18.85       18.42       17.89       17.29       16.61       15.87    
        15.11       14.37       13.71       13.20       12.71       12.14       11.46       10.63       9.630       8.546    
        8.123       7.624       6.961       6.147       5.203       4.140       2.957       1.562      7.8181E-02   0.000    
  13    19.80       19.71       19.55       19.29       18.96       18.54       18.04       17.46       16.81       16.11    
        15.39       14.74       14.14       13.58       13.00       12.35       11.58       10.64       9.364       7.410    
        7.806       7.539       6.937       6.138       5.194       4.119       2.911       1.543      7.7665E-02   0.000    
  14    19.87       19.79       19.63       19.39       19.07       18.66       18.18       17.62       16.98       16.26    
        15.50       14.98       14.45       13.88       13.27       12.58       11.80       10.89       9.828       8.695    
        8.234       7.704       7.016       6.181       5.217       4.134       2.928       1.547      7.7771E-02   0.000    
  15    19.94       19.86       19.71       19.48       19.17       18.78       18.32       17.77       17.14       16.36    
        15.10       15.13       14.69       14.14       13.51       12.82       12.05       11.20       10.28       9.373    
        8.651       7.937       7.148       6.258       5.263       4.173       3.064       1.567      7.8304E-02   0.000    
  16    20.00       19.93       19.78       19.56       19.26       18.89       18.44       17.93       17.34       16.68    
        15.96       15.48       14.96       14.38       13.74       13.05       12.29       11.48       10.63       9.776    
        8.968       8.153       7.287       6.343       5.309       4.179       2.944       1.551      7.7880E-02   0.000    
  17    20.06       19.99       19.84       19.62       19.34       18.98       18.56       18.07       17.53       16.93    
        16.32       15.76       15.19       14.59       13.94       13.24       12.50       11.71       10.88       10.04    
        9.197       8.327       7.409       6.422       5.353       4.192       2.927       1.543      7.7656E-02   0.000    
  18    20.10       20.03       19.89       19.68       19.40       19.06       18.65       18.19       17.67       17.12    
        16.54       15.96       15.37       14.75       14.09       13.40       12.66       11.88       11.06       10.22    
        9.357       8.455       7.503       6.486       5.392       4.209       2.928       1.542      7.7617E-02   0.000    
  19    20.13       20.06       19.92       19.72       19.45       19.11       18.72       18.27       17.77       17.23    
        16.67       16.09       15.49       14.86       14.20       13.50       12.76       11.99       11.18       10.34    
        9.458       8.538       7.567       6.531       5.420       4.224       2.934       1.543      7.7652E-02   0.000    
  20    20.15       20.08       19.94       19.74       19.47       19.14       18.75       18.31       17.82       17.29    
        16.74       16.16       15.55       14.92       14.25       13.55       12.82       12.04       11.23       10.39    
        9.507       8.580       7.599       6.554       5.435       4.233       2.938       1.544      7.7687E-02   0.000    
1
              HEAD IN LAYER   2 AT END OF TIME STEP   1 IN STRESS PERIOD    1
  ---------------------------------------------------------------------------

            1           2           3           4           5           6           7           8           9          10
           11          12          13          14          15          16          17          18          19          20
           21          22          23          24          25          26          27          28          29          30
 ........................................................................................................................
   1    19.33       19.24       19.07       18.82       18.49       18.08       17.60       17.07       16.50       15.91    
        15.31       14.74       14.20       13.68       13.17       12.65       12.10       11.50       10.85       10.14    
        9.355       8.496       7.556       6.532       5.419       4.213       2.911       1.509       0.000       0.000    
   2    19.33       19.24       19.07       18.81       18.47       18.06       17.57       17.03       16.43       15.82    
        15.20       14.62       14.08       13.58       13.09       12.59       12.05       11.47       10.83       10.12    
        9.338       8.482       7.545       6.523       5.413       4.209       2.909       1.508       0.000       0.000    
   3    19.33       19.24       19.07       18.80       18.46       18.03       17.52       16.94       16.30       15.64    
        14.98       14.37       13.85       13.38       12.94       12.47       11.96       11.40       10.77       10.08    
        9.304       8.455       7.523       6.506       5.400       4.201       2.904       1.505       0.000       0.000    
   4    19.34       19.25       19.07       18.80       18.43       17.98       17.44       16.82       16.12       15.36    
        14.61       13.94       13.46       13.08       12.71       12.31       11.84       11.31       10.70       10.02    
        9.256       8.415       7.491       6.482       5.383       4.190       2.898       1.503       0.000       0.000    
   5    19.35       19.26       19.07       18.79       18.42       17.94       17.37       16.69       15.89       15.00    
        14.06       13.24       12.89       12.68       12.43       12.11       11.70       11.20       10.61       9.943    
        9.194       8.363       7.450       6.451       5.361       4.176       2.891       1.500       0.000       0.000    
   6    19.37       19.27       19.08       18.80       18.41       17.92       17.31       16.57       15.68       14.60    
        13.31       11.98       12.09       12.21       12.15       11.92       11.56       11.09       10.52       9.858    
        9.120       8.301       7.399       6.412       5.335       4.162       2.888       1.499       0.000       0.000    
   7    19.40       19.30       19.11       18.82       18.43       17.92       17.30       16.52       15.56       14.32    
        12.51       9.471       11.23       11.84       11.94       11.77       11.44       10.98       10.42       9.763    
        9.033       8.226       7.340       6.368       5.306       4.149       2.896       1.500       0.000       0.000    
   8    19.44       19.34       19.15       18.86       18.47       17.96       17.34       16.57       15.64       14.51    
        13.13       11.70       11.74       11.90       11.90       11.71       11.36       10.89       10.31       9.654    
        8.930       8.138       7.270       6.318       5.274       4.130       2.877       1.496       0.000       0.000    
   9    19.49       19.39       19.20       18.92       18.53       18.04       17.43       16.70       15.84       14.84    
        13.74       12.67       12.06       12.04       11.96       11.72       11.33       10.81       10.20       9.521    
        8.802       8.031       7.189       6.263       5.243       4.120       2.881       1.502       0.000       0.000    
  10    19.55       19.45       19.27       18.99       18.61       18.14       17.56       16.87       16.08       15.19    
        14.20       13.12       11.84       12.16       12.09       11.78       11.32       10.73       10.06       9.338    
        8.634       7.901       7.099       6.207       5.217       4.126       2.924       1.522       0.000       0.000    
  11    19.61       19.53       19.35       19.07       18.71       18.26       17.71       17.06       16.33       15.53    
        14.67       13.80       12.99       12.69       12.37       11.93       11.35       10.66       9.862       9.049    
        8.402       7.747       7.004       6.152       5.194       4.145       3.056       1.553       0.000       0.000    
  12    19.69       19.60       19.43       19.17       18.82       18.38       17.86       17.25       16.57       15.83    
        15.07       14.34       13.67       13.17       12.67       12.11       11.42       10.59       9.591       8.499    
        8.086       7.588       6.923       6.109       5.164       4.100       2.914       1.519       0.000       0.000    
  13    19.76       19.68       19.51       19.26       18.93       18.51       18.01       17.43       16.78       16.07    
        15.35       14.71       14.11       13.54       12.96       12.31       11.55       10.60       9.314       7.154    
        7.762       7.502       6.899       6.100       5.155       4.080       2.870       1.500       0.000       0.000    
  14    19.84       19.76       19.59       19.35       19.03       18.63       18.15       17.59       16.95       16.23    
        15.48       14.95       14.41       13.84       13.23       12.54       11.76       10.85       9.789       8.648    
        8.196       7.667       6.978       6.143       5.178       4.094       2.885       1.504       0.000       0.000    
  15    19.91       19.83       19.67       19.44       19.13       18.75       18.28       17.74       17.10       16.34    
        15.32       15.11       14.66       14.10       13.48       12.78       12.01       11.16       10.24       9.334    
        8.614       7.900       7.110       6.219       5.224       4.132       2.967       1.523       0.000       0.000    
  16    19.97       19.90       19.75       19.52       19.22       18.85       18.41       17.89       17.30       16.64    
        15.94       15.45       14.92       14.34       13.71       13.01       12.25       11.44       10.59       9.739    
        8.930       8.116       7.249       6.304       5.270       4.139       2.902       1.508       0.000       0.000    
  17    20.03       19.95       19.81       19.59       19.30       18.95       18.52       18.04       17.49       16.90    
        16.29       15.73       15.16       14.55       13.90       13.21       12.46       11.67       10.85       10.01    
        9.159       8.289       7.370       6.383       5.314       4.152       2.886       1.500       0.000       0.000    
  18    20.07       20.00       19.86       19.65       19.37       19.02       18.62       18.15       17.64       17.08    
        16.51       15.93       15.34       14.72       14.06       13.36       12.62       11.84       11.03       10.19    
        9.319       8.417       7.465       6.447       5.353       4.169       2.887       1.499       0.000       0.000    
  19    20.10       20.03       19.89       19.68       19.41       19.08       18.68       18.23       17.73       17.20    
        16.64       16.06       15.46       14.83       14.16       13.47       12.73       11.95       11.14       10.30    
        9.420       8.501       7.528       6.492       5.381       4.184       2.893       1.500       0.000       0.000    
  20    20.11       20.05       19.91       19.70       19.43       19.10       18.71       18.27       17.78       17.26    
        16.70       16.12       15.52       14.88       14.22       13.52       12.78       12.01       11.20       10.35    
        9.470       8.542       7.560       6.515       5.396       4.192       2.896       1.501       0.000       0.000    
1
  VOLUMETRIC BUDGET FOR ENTIRE MODEL AT END OF TIME STEP    1, STRESS PERIOD   1
  ------------------------------------------------------------------------------

     CUMULATIVE VOLUMES      L**3       RATES FOR THIS TIME STEP      L**3/T
     ------------------                 ------------------------

           IN:                                      IN:
           ---                                      ---
             STORAGE =           0.0000               STORAGE =           0.0000
       CONSTANT HEAD =           0.0000         CONSTANT HEAD =           0.0000
               WELLS =           0.0000                 WELLS =           0.0000
            RECHARGE =       46400.0000              RECHARGE =       46400.0000
       MANAGED WELLS =         890.5636         MANAGED WELLS =         890.5636

            TOTAL IN =       47290.5636              TOTAL IN =       47290.5636

          OUT:                                     OUT:
          ----                                     ----
             STORAGE =           0.0000               STORAGE =           0.0000
       CONSTANT HEAD =       27312.1842         CONSTANT HEAD =       27312.1842
               WELLS =        5000.0000                 WELLS =        5000.0000
            RECHARGE =           0.0000              RECHARGE =           0.0000
       MANAGED WELLS =       14978.3795         MANAGED WELLS =       14978.3795

           TOTAL OUT =       47290.5638             TOTAL OUT =       47290.5638

            IN - OUT =      -1.4121E-04              IN - OUT =      -1.4121E-04

 PERCENT DISCREPANCY =          -0.00     PERCENT DISCREPANCY =          -0.00






         TIME SUMMARY AT END OF TIME STEP    1 IN STRESS PERIOD    1
                    SECONDS     MINUTES      HOURS       DAYS        YEARS
                    -----------------------------------------------------------
   TIME STEP LENGTH  86400.      1440.0      24.000      1.0000     2.73785E-03
 STRESS PERIOD TIME  86400.      1440.0      24.000      1.0000     2.73785E-03
         TOTAL TIME  86400.      1440.0      24.000      1.0000     2.73785E-03
1

 Run end date and time (yyyy/mm/dd hh:mm:ss): 2017/08/28  7:54:01
 Elapsed run time:  3.142 Seconds

