                                  MODFLOW-2005     
      U.S. GEOLOGICAL SURVEY MODULAR FINITE-DIFFERENCE GROUND-WATER FLOW MODEL
                            VERSION 1.11.00 8/8/2013

 LIST FILE: dewater_pest.list
                         UNIT    2

 OPENING dewater_pest.dis
 FILE TYPE:DIS   UNIT   11   STATUS:OLD    
 FORMAT:FORMATTED              ACCESS:SEQUENTIAL          

 OPENING dewater_pest.bas
 FILE TYPE:BAS6   UNIT   13   STATUS:OLD    
 FORMAT:FORMATTED              ACCESS:SEQUENTIAL          

 OPENING dewater_pest.bcf
 FILE TYPE:BCF6   UNIT   15   STATUS:OLD    
 FORMAT:FORMATTED              ACCESS:SEQUENTIAL          

 OPENING dewater_pest.pcg
 FILE TYPE:PCG   UNIT   27   STATUS:OLD    
 FORMAT:FORMATTED              ACCESS:SEQUENTIAL          

 OPENING dewater_pest.wel
 FILE TYPE:WEL   UNIT   20   STATUS:OLD    
 FORMAT:FORMATTED              ACCESS:SEQUENTIAL          

 OPENING dewater_pest.oc
 FILE TYPE:OC   UNIT   14   STATUS:OLD    
 FORMAT:FORMATTED              ACCESS:SEQUENTIAL          

 OPENING dewater_pest.hds
 FILE TYPE:DATA   UNIT   51   STATUS:REPLACE
 FORMAT:FORMATTED              ACCESS:SEQUENTIAL          

 OPENING dewater_pest.ddn
 FILE TYPE:DATA(BINARY)   UNIT   52   STATUS:REPLACE
 FORMAT:BINARY                 ACCESS:SEQUENTIAL          

 OPENING dewater_pest.cbc
 FILE TYPE:DATA(BINARY)   UNIT   53   STATUS:REPLACE
 FORMAT:BINARY                 ACCESS:SEQUENTIAL          

 BAS -- BASIC PACKAGE, VERSION 7, 5/2/2005 INPUT READ FROM UNIT   13
 
 MODFLOW was compiled using mixed precision
 Precision of REAL variables:           6
 Precision of DOUBLE PRECISION variables:          15

 DISCRETIZATION INPUT DATA READ FROM UNIT   11
 # Discretization file for MODFLOW, generated by Flopy.
    1 LAYERS        20 ROWS        30 COLUMNS
    1 STRESS PERIOD(S) IN SIMULATION
 MODEL TIME UNIT IS DAYS
 MODEL LENGTH UNIT IS UNDEFINED
  Confining bed flag for each layer:
   0



                               DELR
 READING ON UNIT   11 WITH FORMAT: (30E15.6)           



                               DELC
 READING ON UNIT   11 WITH FORMAT: (20E15.6)           

 TOP ELEVATION OF LAYER 1 =  100.0000    



             MODEL LAYER BOTTOM EL. FOR LAYER   1
 READING ON UNIT   11 WITH FORMAT: (30E15.6)           


 STRESS PERIOD     LENGTH       TIME STEPS     MULTIPLIER FOR DELT    SS FLAG
 ----------------------------------------------------------------------------
        1        1000.0000          1                    1.000         SS

 STEADY-STATE SIMULATION



 
 # Basic package file for MODFLOW, generated by Flopy.                           
 THE FREE FORMAT OPTION HAS BEEN SELECTED



                     BOUNDARY ARRAY FOR LAYER   1
 READING ON UNIT   13 WITH FORMAT: (30I10)             

 AQUIFER HEAD WILL BE SET TO   0.0000     AT ALL NO-FLOW NODES (IBOUND=0).



                       INITIAL HEAD FOR LAYER   1
 READING ON UNIT   13 WITH FORMAT: (30E15.6)           
 # Output control package file for MODFLOW, generated by Flopy.

 OUTPUT CONTROL IS SPECIFIED ONLY AT TIME STEPS FOR WHICH OUTPUT IS DESIRED
 HEADS WILL BE SAVED WITH FORMAT: (30E15.6)           
 SAVED HEADS WILL BE LABELED
 COMPACT CELL-BY-CELL BUDGET FILES WILL BE WRITTEN
 AUXILIARY DATA WILL BE SAVED IN CELL-BY-CELL BUDGET FILES
 HEAD PRINT FORMAT CODE IS   0    DRAWDOWN PRINT FORMAT CODE IS   0
 HEADS WILL BE SAVED ON UNIT   51    DRAWDOWNS WILL BE SAVED ON UNIT   52

 BCF -- BLOCK-CENTERED FLOW PACKAGE, VERSION 7, 5/2/2005
         INPUT READ FROM UNIT 15
 STEADY-STATE SIMULATION
 HEAD AT CELLS THAT CONVERT TO DRY=   0.0000    
 WETTING CAPABILITY IS ACTIVE
 WETTING FACTOR=   1.00000     WETTING ITERATION INTERVAL=   1
 FLAG THAT SPECIFIES THE EQUATION TO USE FOR HEAD AT WETTED CELLS=   0
      LAYER  LAYER-TYPE CODE     INTERBLOCK T
      --------------------------------------------
         1            0          0 -- HARMONIC    



           COLUMN TO ROW ANISOTROPY
 READING ON UNIT   15 WITH FORMAT: (1E15.6)            



               TRANSMIS. ALONG ROWS FOR LAYER   1
 READING ON UNIT   15 WITH FORMAT: (30E15.6)           

 WEL -- WELL PACKAGE, VERSION 7, 5/2/2005 INPUT READ FROM UNIT   20
 # Well file for MODFLOW, generated by Flopy.
 No named parameters
 MAXIMUM OF      7 ACTIVE WELLS AT ONE TIME


     0 Well parameters

 PCG -- CONJUGATE-GRADIENT SOLUTION PACKAGE, VERSION 7, 5/2/2005
 # PCG for MODFLOW, generated by Flopy.
 MAXIMUM OF     50 CALLS OF SOLUTION ROUTINE
 MAXIMUM OF      5 INTERNAL ITERATIONS PER CALL TO SOLUTION ROUTINE
 MATRIX PRECONDITIONING TYPE :    1



                                    SOLUTION BY THE CONJUGATE-GRADIENT METHOD
                                   -------------------------------------------
                    MAXIMUM NUMBER OF CALLS TO PCG ROUTINE =       50
                        MAXIMUM ITERATIONS PER CALL TO PCG =        5
                               MATRIX PRECONDITIONING TYPE =        1
        RELAXATION FACTOR (ONLY USED WITH PRECOND. TYPE 1) =    0.10000E+01
 PARAMETER OF POLYNOMIAL PRECOND. = 2 (2) OR IS CALCULATED :        0
                         HEAD CHANGE CRITERION FOR CLOSURE =    0.10000E-07
                     RESIDUAL CHANGE CRITERION FOR CLOSURE =    0.10000E+01
            PCG HEAD AND RESIDUAL CHANGE PRINTOUT INTERVAL =        1
     PRINTING FROM SOLVER IS LIMITED(1) OR SUPPRESSED (>1) =        0
                            STEADY-STATE DAMPING PARAMETER =    0.10000E+01
                               TRANSIENT DAMPING PARAMETER =    0.10000E+01
1
                            STRESS PERIOD NO.    1, LENGTH =  1000.0000    
                            -----------------------------------------------

                              NUMBER OF TIME STEPS =     1

                               MULTIPLIER FOR DELT =     1.000

                            INITIAL TIME STEP SIZE =  1000.0000    

 WELL NO.  LAYER   ROW   COL   STRESS RATE         
 --------------------------------------------------
      1      1      7     14       0.000    
      2      1      7     16       0.000    
      3      1      8     15       0.000    
      4      1      9     14       0.000    
      5      1      9     16       0.000    
      6      1     11     17       0.000    
      7      1     13     16     -0.1000E+05

      7 WELLS
 
 SOLVING FOR HEAD 


    11 CALLS TO PCG ROUTINE FOR TIME STEP   1 IN STRESS PERIOD    1
    48 TOTAL ITERATIONS

 MAXIMUM HEAD CHANGE FOR EACH ITERATION (1 INDICATES THE FIRST INNER ITERATION):

    HEAD CHANGE    HEAD CHANGE    HEAD CHANGE    HEAD CHANGE    HEAD CHANGE 
   LAYER,ROW,COL  LAYER,ROW,COL  LAYER,ROW,COL  LAYER,ROW,COL  LAYER,ROW,COL
 ---------------------------------------------------------------------------
  1  -86.20      0  -52.45      0  -15.79      0  -9.703      0  -5.365    
   (  1, 13, 16)  (  1, 13, 16)  (  1, 13, 16)  (  1, 20,  9)  (  1,  9, 19)
  1   2.894      0  -1.689      0 -0.9739      0  0.6119      0  0.3377    
   (  1,  6, 16)  (  1, 12, 17)  (  1, 14, 15)  (  1,  2, 13)  (  1, 19, 22)
  1 -0.4723      0 -0.2631      0 -0.1169      0 -0.6086E-01  0 -0.3709E-01
   (  1, 13, 16)  (  1, 13, 16)  (  1, 11, 18)  (  1, 20,  9)  (  1,  9, 19)
  1  0.2419E-01  0 -0.1138E-01  0 -0.7201E-02  0  0.4198E-02  0  0.2701E-02
   (  1,  7, 16)  (  1, 12, 17)  (  1, 14, 15)  (  1,  2, 13)  (  1, 17, 20)
  1 -0.3892E-02  0 -0.1987E-02  0 -0.1032E-02  0 -0.4820E-03  0 -0.3205E-03
   (  1, 13, 16)  (  1, 13, 16)  (  1, 11, 18)  (  1, 20,  9)  (  1, 10, 19)
  1  0.2141E-03  0 -0.9544E-04  0 -0.6236E-04  0  0.3421E-04  0 -0.2538E-04
   (  1,  7, 16)  (  1, 12, 17)  (  1, 14, 15)  (  1,  2, 12)  (  1,  6, 22)
  1 -0.3346E-04  0 -0.1622E-04  0 -0.9737E-05  0  0.4243E-05  0 -0.2843E-05
   (  1, 13, 16)  (  1, 13, 16)  (  1, 11, 18)  (  1,  3, 11)  (  1, 10, 19)
  1  0.1945E-05  0 -0.8707E-06  0  0.6192E-06  0 -0.3404E-06  0 -0.2540E-06
   (  1,  7, 16)  (  1, 12, 17)  (  1,  1, 17)  (  1, 11, 18)  (  1,  6, 22)
  1 -0.2899E-06  0 -0.1431E-06  0 -0.9587E-07  0  0.4150E-07  0 -0.2607E-07
   (  1, 13, 16)  (  1,  8, 21)  (  1, 11, 18)  (  1,  3, 12)  (  1, 10, 19)
  1  0.1811E-07  0 -0.8259E-08  1  0.5685E-08
   (  1,  8, 17)  (  1, 12, 17)  (  1,  3, 11)

 MAXIMUM RESIDUAL FOR EACH ITERATION (1 INDICATES THE FIRST INNER ITERATION):

    RESIDUAL       RESIDUAL       RESIDUAL       RESIDUAL       RESIDUAL    
   LAYER,ROW,COL  LAYER,ROW,COL  LAYER,ROW,COL  LAYER,ROW,COL  LAYER,ROW,COL
 ---------------------------------------------------------------------------
  1   6857.      0   2821.      0   1064.      0   631.4      0   387.2    
   (  1, 13, 16)  (  1, 13, 16)  (  1, 13, 16)  (  1, 12, 17)  (  1, 12, 17)
  1   320.6      0   148.6      0   84.91      0   71.73      0   50.22    
   (  1, 12, 17)  (  1, 14, 15)  (  1, 13, 16)  (  1, 13, 16)  (  1, 13, 16)
  1   36.19      0   16.47      0   6.920      0   4.905      0   2.944    
   (  1, 13, 16)  (  1, 13, 16)  (  1, 14, 15)  (  1, 12, 17)  (  1, 12, 17)
  1   2.437      0   1.082      0  0.6453      0  0.5566      0  0.3846    
   (  1, 12, 17)  (  1, 14, 15)  (  1, 13, 16)  (  1, 13, 16)  (  1, 13, 16)
  1  0.2735      0  0.1205      0  0.5589E-01  0  0.4062E-01  0  0.2460E-01
   (  1, 13, 16)  (  1, 13, 16)  (  1, 14, 15)  (  1, 12, 17)  (  1, 12, 17)
  1  0.2017E-01  0  0.8833E-02  0  0.5248E-02  0  0.4593E-02  0  0.3205E-02
   (  1, 12, 17)  (  1, 14, 15)  (  1, 13, 16)  (  1, 13, 16)  (  1, 13, 16)
  1  0.2258E-02  0  0.9690E-03  0  0.4770E-03  0  0.3497E-03  0  0.2152E-03
   (  1, 13, 16)  (  1, 13, 16)  (  1, 14, 15)  (  1, 12, 17)  (  1, 12, 17)
  1  0.1746E-03  0  0.7617E-04  0  0.4497E-04  0  0.3965E-04  0  0.2789E-04
   (  1, 12, 17)  (  1, 14, 15)  (  1, 13, 16)  (  1, 13, 16)  (  1, 13, 16)
  1  0.1959E-04  0  0.8259E-05  0  0.4215E-05  0  0.3110E-05  0  0.1939E-05
   (  1, 13, 16)  (  1, 13, 16)  (  1, 14, 15)  (  1, 12, 17)  (  1, 12, 17)
  1  0.1558E-05  0  0.6775E-06  1  0.5054E-06
   (  1, 12, 17)  (  1, 14, 15)  (  1, 12, 17)



 OUTPUT CONTROL FOR STRESS PERIOD    1   TIME STEP    1
    SAVE HEAD FOR ALL LAYERS

 HEAD WILL BE SAVED ON UNIT   51 AT END OF TIME STEP    1, STRESS PERIOD    1
1
  VOLUMETRIC BUDGET FOR ENTIRE MODEL AT END OF TIME STEP    1, STRESS PERIOD   1
  ------------------------------------------------------------------------------

     CUMULATIVE VOLUMES      L**3       RATES FOR THIS TIME STEP      L**3/T
     ------------------                 ------------------------

           IN:                                      IN:
           ---                                      ---
             STORAGE =           0.0000               STORAGE =           0.0000
       CONSTANT HEAD =    10000000.0000         CONSTANT HEAD =       10000.0000
               WELLS =           0.0000                 WELLS =           0.0000

            TOTAL IN =    10000000.0000              TOTAL IN =       10000.0000

          OUT:                                     OUT:
          ----                                     ----
             STORAGE =           0.0000               STORAGE =           0.0000
       CONSTANT HEAD =           0.0000         CONSTANT HEAD =           0.0000
               WELLS =    10000000.0000                 WELLS =       10000.0000

           TOTAL OUT =    10000000.0000             TOTAL OUT =       10000.0000

            IN - OUT =           0.0000              IN - OUT =           0.0000

 PERCENT DISCREPANCY =           0.00     PERCENT DISCREPANCY =           0.00






         TIME SUMMARY AT END OF TIME STEP    1 IN STRESS PERIOD    1
                    SECONDS     MINUTES      HOURS       DAYS        YEARS
                    -----------------------------------------------------------
   TIME STEP LENGTH 8.64000E+07 1.44000E+06  24000.     1000.00      2.7379    
 STRESS PERIOD TIME 8.64000E+07 1.44000E+06  24000.     1000.00      2.7379    
         TOTAL TIME 8.64000E+07 1.44000E+06  24000.     1000.00      2.7379    
1

 Run end date and time (yyyy/mm/dd hh:mm:ss): 2016/09/12 14:55:35
 Elapsed run time:  0.022 Seconds

