                                  MODFLOW-2005     
      U.S. GEOLOGICAL SURVEY MODULAR FINITE-DIFFERENCE GROUND-WATER FLOW MODEL
                            VERSION 1.11.00 8/8/2013

 LIST FILE: dewater_pest.list
                         UNIT    2

 OPENING dewater_pest.dis
 FILE TYPE:DIS   UNIT   11   STATUS:OLD    
 FORMAT:FORMATTED              ACCESS:SEQUENTIAL          

 OPENING dewater_pest.bas
 FILE TYPE:BAS6   UNIT   13   STATUS:OLD    
 FORMAT:FORMATTED              ACCESS:SEQUENTIAL          

 OPENING dewater_pest.bcf
 FILE TYPE:BCF6   UNIT   15   STATUS:OLD    
 FORMAT:FORMATTED              ACCESS:SEQUENTIAL          

 OPENING dewater_pest.pcg
 FILE TYPE:PCG   UNIT   27   STATUS:OLD    
 FORMAT:FORMATTED              ACCESS:SEQUENTIAL          

 OPENING dewater_pest.wel
 FILE TYPE:WEL   UNIT   20   STATUS:OLD    
 FORMAT:FORMATTED              ACCESS:SEQUENTIAL          

 OPENING dewater_pest.oc
 FILE TYPE:OC   UNIT   14   STATUS:OLD    
 FORMAT:FORMATTED              ACCESS:SEQUENTIAL          

 OPENING dewater_pest.hds
 FILE TYPE:DATA   UNIT   51   STATUS:REPLACE
 FORMAT:FORMATTED              ACCESS:SEQUENTIAL          

 OPENING dewater_pest.ddn
 FILE TYPE:DATA(BINARY)   UNIT   52   STATUS:REPLACE
 FORMAT:BINARY                 ACCESS:SEQUENTIAL          

 OPENING dewater_pest.cbc
 FILE TYPE:DATA(BINARY)   UNIT   53   STATUS:REPLACE
 FORMAT:BINARY                 ACCESS:SEQUENTIAL          

 BAS -- BASIC PACKAGE, VERSION 7, 5/2/2005 INPUT READ FROM UNIT   13
 
 MODFLOW was compiled using mixed precision
 Precision of REAL variables:           6
 Precision of DOUBLE PRECISION variables:          15

 DISCRETIZATION INPUT DATA READ FROM UNIT   11
 # Discretization file for MODFLOW, generated by Flopy.
    1 LAYERS        20 ROWS        30 COLUMNS
    1 STRESS PERIOD(S) IN SIMULATION
 MODEL TIME UNIT IS DAYS
 MODEL LENGTH UNIT IS UNDEFINED
  Confining bed flag for each layer:
   0



                               DELR
 READING ON UNIT   11 WITH FORMAT: (30E15.6)           



                               DELC
 READING ON UNIT   11 WITH FORMAT: (20E15.6)           

 TOP ELEVATION OF LAYER 1 =  100.0000    



             MODEL LAYER BOTTOM EL. FOR LAYER   1
 READING ON UNIT   11 WITH FORMAT: (30E15.6)           


 STRESS PERIOD     LENGTH       TIME STEPS     MULTIPLIER FOR DELT    SS FLAG
 ----------------------------------------------------------------------------
        1        1000.0000          1                    1.000         SS

 STEADY-STATE SIMULATION



 
 # Basic package file for MODFLOW, generated by Flopy.                           
 THE FREE FORMAT OPTION HAS BEEN SELECTED



                     BOUNDARY ARRAY FOR LAYER   1
 READING ON UNIT   13 WITH FORMAT: (30I10)             

 AQUIFER HEAD WILL BE SET TO   0.0000     AT ALL NO-FLOW NODES (IBOUND=0).



                       INITIAL HEAD FOR LAYER   1
 READING ON UNIT   13 WITH FORMAT: (30E15.6)           
 # Output control package file for MODFLOW, generated by Flopy.

 OUTPUT CONTROL IS SPECIFIED ONLY AT TIME STEPS FOR WHICH OUTPUT IS DESIRED
 HEADS WILL BE SAVED WITH FORMAT: (30E15.6)           
 SAVED HEADS WILL BE LABELED
 COMPACT CELL-BY-CELL BUDGET FILES WILL BE WRITTEN
 AUXILIARY DATA WILL BE SAVED IN CELL-BY-CELL BUDGET FILES
 HEAD PRINT FORMAT CODE IS   0    DRAWDOWN PRINT FORMAT CODE IS   0
 HEADS WILL BE SAVED ON UNIT   51    DRAWDOWNS WILL BE SAVED ON UNIT   52

 BCF -- BLOCK-CENTERED FLOW PACKAGE, VERSION 7, 5/2/2005
         INPUT READ FROM UNIT 15
 STEADY-STATE SIMULATION
 HEAD AT CELLS THAT CONVERT TO DRY=   0.0000    
 WETTING CAPABILITY IS ACTIVE
 WETTING FACTOR=   1.00000     WETTING ITERATION INTERVAL=   1
 FLAG THAT SPECIFIES THE EQUATION TO USE FOR HEAD AT WETTED CELLS=   0
      LAYER  LAYER-TYPE CODE     INTERBLOCK T
      --------------------------------------------
         1            0          0 -- HARMONIC    



           COLUMN TO ROW ANISOTROPY
 READING ON UNIT   15 WITH FORMAT: (1E15.6)            



               TRANSMIS. ALONG ROWS FOR LAYER   1
 READING ON UNIT   15 WITH FORMAT: (30E15.6)           

 WEL -- WELL PACKAGE, VERSION 7, 5/2/2005 INPUT READ FROM UNIT   20
 # Well file for MODFLOW, generated by Flopy.
 No named parameters
 MAXIMUM OF      7 ACTIVE WELLS AT ONE TIME


     0 Well parameters

 PCG -- CONJUGATE-GRADIENT SOLUTION PACKAGE, VERSION 7, 5/2/2005
 # PCG for MODFLOW, generated by Flopy.
 MAXIMUM OF     50 CALLS OF SOLUTION ROUTINE
 MAXIMUM OF      5 INTERNAL ITERATIONS PER CALL TO SOLUTION ROUTINE
 MATRIX PRECONDITIONING TYPE :    1



                                    SOLUTION BY THE CONJUGATE-GRADIENT METHOD
                                   -------------------------------------------
                    MAXIMUM NUMBER OF CALLS TO PCG ROUTINE =       50
                        MAXIMUM ITERATIONS PER CALL TO PCG =        5
                               MATRIX PRECONDITIONING TYPE =        1
        RELAXATION FACTOR (ONLY USED WITH PRECOND. TYPE 1) =    0.10000E+01
 PARAMETER OF POLYNOMIAL PRECOND. = 2 (2) OR IS CALCULATED :        0
                         HEAD CHANGE CRITERION FOR CLOSURE =    0.10000E-07
                     RESIDUAL CHANGE CRITERION FOR CLOSURE =    0.10000E+01
            PCG HEAD AND RESIDUAL CHANGE PRINTOUT INTERVAL =        1
     PRINTING FROM SOLVER IS LIMITED(1) OR SUPPRESSED (>1) =        0
                            STEADY-STATE DAMPING PARAMETER =    0.10000E+01
                               TRANSIENT DAMPING PARAMETER =    0.10000E+01
1
                            STRESS PERIOD NO.    1, LENGTH =  1000.0000    
                            -----------------------------------------------

                              NUMBER OF TIME STEPS =     1

                               MULTIPLIER FOR DELT =     1.000

                            INITIAL TIME STEP SIZE =  1000.0000    

 WELL NO.  LAYER   ROW   COL   STRESS RATE         
 --------------------------------------------------
      1      1      7     14       0.000    
      2      1      7     16       0.000    
      3      1      8     15       0.000    
      4      1      9     14       0.000    
      5      1      9     16     -0.1000E+05
      6      1     11     17       0.000    
      7      1     13     16       0.000    

      7 WELLS
 
 SOLVING FOR HEAD 


    11 CALLS TO PCG ROUTINE FOR TIME STEP   1 IN STRESS PERIOD    1
    50 TOTAL ITERATIONS

 MAXIMUM HEAD CHANGE FOR EACH ITERATION (1 INDICATES THE FIRST INNER ITERATION):

    HEAD CHANGE    HEAD CHANGE    HEAD CHANGE    HEAD CHANGE    HEAD CHANGE 
   LAYER,ROW,COL  LAYER,ROW,COL  LAYER,ROW,COL  LAYER,ROW,COL  LAYER,ROW,COL
 ---------------------------------------------------------------------------
  1  -80.36      0  -57.82      0  -17.50      0  -8.863      0   4.340    
   (  1,  9, 16)  (  1,  9, 16)  (  1,  1, 23)  (  1,  7, 18)  (  1,  1, 13)
  1   2.003      0  -1.624      0  -1.283      0  0.9146      0  0.3361    
   (  1, 13, 16)  (  1, 10, 15)  (  1,  5, 19)  (  1,  1, 14)  (  1,  2, 10)
  1 -0.4476      0 -0.3477      0 -0.1007      0 -0.6831E-01  0 -0.3192E-01
   (  1,  9, 16)  (  1,  9, 16)  (  1,  1, 23)  (  1,  7, 18)  (  1, 10, 15)
  1  0.1807E-01  0  0.1306E-01  0 -0.1186E-01  0  0.7904E-02  0 -0.2602E-02
   (  1, 13, 16)  (  1,  9, 21)  (  1,  6, 19)  (  1,  1, 14)  (  1,  4, 21)
  1 -0.4043E-02  0 -0.2880E-02  0 -0.9781E-03  0 -0.6399E-03  0 -0.2928E-03
   (  1,  9, 16)  (  1,  9, 16)  (  1, 13, 12)  (  1,  7, 18)  (  1, 10, 15)
  1  0.1710E-03  0  0.1308E-03  0 -0.1157E-03  0  0.7419E-04  0  0.2513E-04
   (  1, 13, 16)  (  1,  9, 21)  (  1,  6, 19)  (  1,  1, 14)  (  1,  2, 10)
  1 -0.3824E-04  0 -0.2691E-04  0 -0.1006E-04  0 -0.6169E-05  0 -0.2768E-05
   (  1,  9, 16)  (  1,  5, 20)  (  1, 13, 12)  (  1,  7, 18)  (  1, 10, 15)
  1  0.1645E-05  0  0.1319E-05  0 -0.1136E-05  0  0.7032E-06  0  0.2479E-06
   (  1, 13, 16)  (  1,  9, 21)  (  1,  6, 19)  (  1,  1, 14)  (  1,  2, 10)
  1 -0.3687E-06  0 -0.2587E-06  0 -0.1033E-06  0 -0.6041E-07  0 -0.2660E-07
   (  1,  9, 16)  (  1,  5, 20)  (  1, 13, 12)  (  1,  7, 18)  (  1, 10, 15)
  1 -0.1616E-07  0  0.1333E-07  0 -0.1119E-07  0  0.6693E-08  1 -0.2441E-08
   (  1,  6, 17)  (  1,  9, 21)  (  1,  6, 19)  (  1,  1, 14)  (  1,  5, 20)

 MAXIMUM RESIDUAL FOR EACH ITERATION (1 INDICATES THE FIRST INNER ITERATION):

    RESIDUAL       RESIDUAL       RESIDUAL       RESIDUAL       RESIDUAL    
   LAYER,ROW,COL  LAYER,ROW,COL  LAYER,ROW,COL  LAYER,ROW,COL  LAYER,ROW,COL
 ---------------------------------------------------------------------------
  1   7116.      0   2783.      0   921.4      0   651.2      0   411.1    
   (  1,  9, 16)  (  1,  9, 16)  (  1,  9, 16)  (  1,  8, 17)  (  1,  8, 17)
  1   335.1      0   162.6      0   95.83      0   74.02      0   53.68    
   (  1, 10, 15)  (  1,  8, 17)  (  1,  9, 16)  (  1,  9, 16)  (  1,  9, 16)
  1   40.38      0   14.81      0   7.036      0   5.327      0   3.350    
   (  1,  9, 16)  (  1,  9, 16)  (  1, 10, 15)  (  1, 10, 15)  (  1,  8, 17)
  1   2.697      0   1.289      0  0.7197      0  0.6067      0  0.4391    
   (  1, 10, 15)  (  1, 10, 15)  (  1,  9, 16)  (  1,  9, 16)  (  1,  9, 16)
  1  0.3261      0  0.1160      0  0.6052E-01  0  0.4718E-01  0  0.2957E-01
   (  1,  9, 16)  (  1,  9, 16)  (  1, 10, 15)  (  1, 10, 15)  (  1,  8, 17)
  1  0.2362E-01  0  0.1110E-01  0  0.6091E-02  0  0.5344E-02  0  0.3893E-02
   (  1, 10, 15)  (  1, 10, 15)  (  1,  9, 16)  (  1,  9, 16)  (  1,  9, 16)
  1  0.2860E-02  0  0.9888E-03  0  0.5391E-03  0  0.4307E-03  0  0.2710E-03
   (  1,  9, 16)  (  1,  9, 16)  (  1, 10, 15)  (  1, 10, 15)  (  1,  8, 17)
  1  0.2156E-03  0  0.9950E-04  0  0.5412E-04  0  0.4892E-04  0  0.3587E-04
   (  1, 10, 15)  (  1, 10, 15)  (  1,  9, 16)  (  1,  9, 16)  (  1,  9, 16)
  1  0.2610E-04  0  0.8817E-05  0  0.4926E-05  0  0.4017E-05  0  0.2540E-05
   (  1,  9, 16)  (  1,  9, 16)  (  1, 10, 15)  (  1, 10, 15)  (  1,  8, 17)
  1  0.2016E-05  0  0.9162E-06  0  0.4946E-06  0  0.4582E-06  1  0.3651E-06
   (  1, 10, 15)  (  1, 10, 15)  (  1,  9, 16)  (  1,  9, 16)  (  1,  9, 16)



 OUTPUT CONTROL FOR STRESS PERIOD    1   TIME STEP    1
    SAVE HEAD FOR ALL LAYERS

 HEAD WILL BE SAVED ON UNIT   51 AT END OF TIME STEP    1, STRESS PERIOD    1
1
  VOLUMETRIC BUDGET FOR ENTIRE MODEL AT END OF TIME STEP    1, STRESS PERIOD   1
  ------------------------------------------------------------------------------

     CUMULATIVE VOLUMES      L**3       RATES FOR THIS TIME STEP      L**3/T
     ------------------                 ------------------------

           IN:                                      IN:
           ---                                      ---
             STORAGE =           0.0000               STORAGE =           0.0000
       CONSTANT HEAD =    10000000.0000         CONSTANT HEAD =       10000.0000
               WELLS =           0.0000                 WELLS =           0.0000

            TOTAL IN =    10000000.0000              TOTAL IN =       10000.0000

          OUT:                                     OUT:
          ----                                     ----
             STORAGE =           0.0000               STORAGE =           0.0000
       CONSTANT HEAD =           0.0000         CONSTANT HEAD =           0.0000
               WELLS =    10000000.0000                 WELLS =       10000.0000

           TOTAL OUT =    10000000.0000             TOTAL OUT =       10000.0000

            IN - OUT =           0.0000              IN - OUT =           0.0000

 PERCENT DISCREPANCY =           0.00     PERCENT DISCREPANCY =           0.00






         TIME SUMMARY AT END OF TIME STEP    1 IN STRESS PERIOD    1
                    SECONDS     MINUTES      HOURS       DAYS        YEARS
                    -----------------------------------------------------------
   TIME STEP LENGTH 8.64000E+07 1.44000E+06  24000.     1000.00      2.7379    
 STRESS PERIOD TIME 8.64000E+07 1.44000E+06  24000.     1000.00      2.7379    
         TOTAL TIME 8.64000E+07 1.44000E+06  24000.     1000.00      2.7379    
1

 Run end date and time (yyyy/mm/dd hh:mm:ss): 2016/09/14 13:04:09
 Elapsed run time:  0.022 Seconds

