                                  MODFLOW-2005     
      U.S. GEOLOGICAL SURVEY MODULAR FINITE-DIFFERENCE GROUND-WATER FLOW MODEL
                            VERSION 1.11.00 8/8/2013

 LIST FILE: seawater.list
                         UNIT   10

 OPENING seawater.dis
 FILE TYPE:DIS   UNIT   11   STATUS:OLD    
 FORMAT:FORMATTED              ACCESS:SEQUENTIAL          

 OPENING seawater.bas
 FILE TYPE:BAS6   UNIT   12   STATUS:OLD    
 FORMAT:FORMATTED              ACCESS:SEQUENTIAL          

 OPENING seawater.pcg
 FILE TYPE:PCG   UNIT   16   STATUS:OLD    
 FORMAT:FORMATTED              ACCESS:SEQUENTIAL          

 OPENING seawater.bcf
 FILE TYPE:BCF6   UNIT   13   STATUS:OLD    
 FORMAT:FORMATTED              ACCESS:SEQUENTIAL          

 OPENING seawater.wel
 FILE TYPE:WEL   UNIT   14   STATUS:OLD    
 FORMAT:FORMATTED              ACCESS:SEQUENTIAL          

 OPENING seawater.rch
 FILE TYPE:RCH   UNIT   15   STATUS:OLD    
 FORMAT:FORMATTED              ACCESS:SEQUENTIAL          

 OPENING seawater.oc
 FILE TYPE:OC   UNIT   50   STATUS:OLD    
 FORMAT:FORMATTED              ACCESS:SEQUENTIAL          

 OPENING seawater.hds
 FILE TYPE:DATA   UNIT   51   STATUS:UNKNOWN
 FORMAT:FORMATTED              ACCESS:SEQUENTIAL          

 BAS -- BASIC PACKAGE, VERSION 7, 5/2/2005 INPUT READ FROM UNIT   12
 
 MODFLOW was compiled using mixed precision
 Precision of REAL variables:           6
 Precision of DOUBLE PRECISION variables:          15

 DISCRETIZATION INPUT DATA READ FROM UNIT   11
 # DIS package for  MODFLOW-2005, generated by Flopy.
    2 LAYERS        20 ROWS        30 COLUMNS
    1 STRESS PERIOD(S) IN SIMULATION
 MODEL TIME UNIT IS DAYS
 MODEL LENGTH UNIT IS UNDEFINED
  Confining bed flag for each layer:
   0   0

 OPENING FILE ON UNIT   99:
 .\delr.ref                                                                                                                                                                                              



                               DELR
 READING ON UNIT   99 WITH FORMAT: (30E15.6)           

 OPENING FILE ON UNIT   99:
 .\delc.ref                                                                                                                                                                                              



                               DELC
 READING ON UNIT   99 WITH FORMAT: (20E15.6)           

 OPENING FILE ON UNIT   99:
 .\model_top.ref                                                                                                                                                                                         



           TOP ELEVATION OF LAYER 1
 READING ON UNIT   99 WITH FORMAT: (FREE)              

 OPENING FILE ON UNIT   99:
 .\botm_layer_1.ref                                                                                                                                                                                      



             MODEL LAYER BOTTOM EL. FOR LAYER   1
 READING ON UNIT   99 WITH FORMAT: (30E15.6)           

 OPENING FILE ON UNIT   99:
 .\botm_layer_2.ref                                                                                                                                                                                      



             MODEL LAYER BOTTOM EL. FOR LAYER   2
 READING ON UNIT   99 WITH FORMAT: (30E15.6)           


 STRESS PERIOD     LENGTH       TIME STEPS     MULTIPLIER FOR DELT    SS FLAG
 ----------------------------------------------------------------------------
        1        1.0000000          1                    1.000         SS

 STEADY-STATE SIMULATION



 
 # BAS6 package for  MODFLOW-2005, generated by Flopy.                           
 THE FREE FORMAT OPTION HAS BEEN SELECTED

 OPENING FILE ON UNIT   99:
 .\ibound_layer_1.ref                                                                                                                                                                                    



                     BOUNDARY ARRAY FOR LAYER   1
 READING ON UNIT   99 WITH FORMAT: (30I10)             

 OPENING FILE ON UNIT   99:
 .\ibound_layer_2.ref                                                                                                                                                                                    



                     BOUNDARY ARRAY FOR LAYER   2
 READING ON UNIT   99 WITH FORMAT: (30I10)             

 AQUIFER HEAD WILL BE SET TO   0.0000     AT ALL NO-FLOW NODES (IBOUND=0).

 OPENING FILE ON UNIT   99:
 .\strt_layer_1.ref                                                                                                                                                                                      



                       INITIAL HEAD FOR LAYER   1
 READING ON UNIT   99 WITH FORMAT: (30E15.6)           

 OPENING FILE ON UNIT   99:
 .\strt_layer_2.ref                                                                                                                                                                                      



                       INITIAL HEAD FOR LAYER   2
 READING ON UNIT   99 WITH FORMAT: (30E15.6)           
 # OC package for  MODFLOW-2005, generated by Flopy.

 OUTPUT CONTROL IS SPECIFIED ONLY AT TIME STEPS FOR WHICH OUTPUT IS DESIRED
 HEADS WILL BE SAVED WITH FORMAT: (30E15.6)           
 COMPACT CELL-BY-CELL BUDGET FILES WILL BE WRITTEN
 AUXILIARY DATA WILL BE SAVED IN CELL-BY-CELL BUDGET FILES
 HEAD PRINT FORMAT CODE IS   0    DRAWDOWN PRINT FORMAT CODE IS   0
 HEADS WILL BE SAVED ON UNIT   51    DRAWDOWNS WILL BE SAVED ON UNIT    0

 BCF -- BLOCK-CENTERED FLOW PACKAGE, VERSION 7, 5/2/2005
         INPUT READ FROM UNIT 13
 STEADY-STATE SIMULATION
 HEAD AT CELLS THAT CONVERT TO DRY=  0.10000E+11
 WETTING CAPABILITY IS ACTIVE
 WETTING FACTOR=   1.00000     WETTING ITERATION INTERVAL=   1
 FLAG THAT SPECIFIES THE EQUATION TO USE FOR HEAD AT WETTED CELLS=   0
      LAYER  LAYER-TYPE CODE     INTERBLOCK T
      --------------------------------------------
         1            1         10 -- ARITHMETIC  
         2            0          0 -- HARMONIC    

 OPENING FILE ON UNIT   99:
 .\anisotropy_factor.ref                                                                                                                                                                                 



           COLUMN TO ROW ANISOTROPY
 READING ON UNIT   99 WITH FORMAT: (2E15.6)            

 OPENING FILE ON UNIT   99:
 .\Horizontal_Hydraulic_Conductivity_Layer_1.ref                                                                                                                                                         



              HYD. COND. ALONG ROWS FOR LAYER   1
 READING ON UNIT   99 WITH FORMAT: (FREE)              

 OPENING FILE ON UNIT   99:
 .\Vertical_Conductance_Layer_1.ref                                                                                                                                                                      



           VERT HYD COND /THICKNESS FOR LAYER   1
 READING ON UNIT   99 WITH FORMAT: (FREE)              

 OPENING FILE ON UNIT   99:
 .\WETDRY_Layer_1.ref                                                                                                                                                                                    



                   WETDRY PARAMETER FOR LAYER   1
 READING ON UNIT   99 WITH FORMAT: (FREE)              

 OPENING FILE ON UNIT   99:
 .\Transmissivity_Layer_2.ref                                                                                                                                                                            



               TRANSMIS. ALONG ROWS FOR LAYER   2
 READING ON UNIT   99 WITH FORMAT: (FREE)              

 WEL -- WELL PACKAGE, VERSION 7, 5/2/2005 INPUT READ FROM UNIT   14
 No named parameters
 MAXIMUM OF     13 ACTIVE WELLS AT ONE TIME


     0 Well parameters

 RCH -- RECHARGE PACKAGE, VERSION 7, 5/2/2005 INPUT READ FROM UNIT   15
 # RCH package for  MODFLOW-2005, generated by Flopy.
 No named parameters
 OPTION 1 -- RECHARGE TO TOP LAYER


     0 Recharge parameters

 PCG -- CONJUGATE-GRADIENT SOLUTION PACKAGE, VERSION 7, 5/2/2005
 # PCG package for  MODFLOW-2005, generated by Flopy.
 MAXIMUM OF    500 CALLS OF SOLUTION ROUTINE
 MAXIMUM OF      5 INTERNAL ITERATIONS PER CALL TO SOLUTION ROUTINE
 MATRIX PRECONDITIONING TYPE :    1



                                    SOLUTION BY THE CONJUGATE-GRADIENT METHOD
                                   -------------------------------------------
                    MAXIMUM NUMBER OF CALLS TO PCG ROUTINE =      500
                        MAXIMUM ITERATIONS PER CALL TO PCG =        5
                               MATRIX PRECONDITIONING TYPE =        1
        RELAXATION FACTOR (ONLY USED WITH PRECOND. TYPE 1) =    0.00000E+00
 PARAMETER OF POLYNOMIAL PRECOND. = 2 (2) OR IS CALCULATED :        0
                         HEAD CHANGE CRITERION FOR CLOSURE =    0.10000E-07
                     RESIDUAL CHANGE CRITERION FOR CLOSURE =    0.10000E+01
            PCG HEAD AND RESIDUAL CHANGE PRINTOUT INTERVAL =      999
     PRINTING FROM SOLVER IS LIMITED(1) OR SUPPRESSED (>1) =        0
                            STEADY-STATE DAMPING PARAMETER =    0.10000E+01
                               TRANSIENT DAMPING PARAMETER =    0.10000E+01
1
                            STRESS PERIOD NO.    1, LENGTH =  1.0000000    
                            -----------------------------------------------

                              NUMBER OF TIME STEPS =     1

                               MULTIPLIER FOR DELT =     1.000

                            INITIAL TIME STEP SIZE =  1.0000000    

 OPENING FILE ON UNIT   99:
 WEL_0000.dat                                                                                                                                                                                            

 WELL NO.  LAYER   ROW   COL   STRESS RATE         
 --------------------------------------------------
      1      1     13     20      -5000.    
      2      1      7     12       0.000    
      3      1     10     13       0.000    
      4      1     10     16       0.000    
      5      1     12     15       0.000    
      6      1     15     11       0.000    
      7      2     15     11       0.000    
      8      1      7     27       0.000    
      9      2      7     27       0.000    
     10      1     11     27       0.000    
     11      2     11     27       0.000    
     12      1     15     27       0.000    
     13      2     15     27       0.000    

     13 WELLS

 OPENING FILE ON UNIT   99:
 .\rech_0.ref                                                                                                                                                                                            



                           RECHARGE
 READING ON UNIT   99 WITH FORMAT: (FREE)              
 
 SOLVING FOR HEAD 


    98 CALLS TO PCG ROUTINE FOR TIME STEP   1 IN STRESS PERIOD    1
   485 TOTAL ITERATIONS

 MAXIMUM HEAD CHANGE FOR EACH ITERATION (1 INDICATES THE FIRST INNER ITERATION):

    HEAD CHANGE    HEAD CHANGE    HEAD CHANGE    HEAD CHANGE    HEAD CHANGE 
   LAYER,ROW,COL  LAYER,ROW,COL  LAYER,ROW,COL  LAYER,ROW,COL  LAYER,ROW,COL
 ---------------------------------------------------------------------------
  1  -39.99      0  -14.77      0  -10.90      0  -8.720      0  -6.983    
   (  1, 20, 29)  (  1,  2, 28)  (  2, 19, 26)  (  1, 18, 25)  (  1, 16, 24)
  1  -1.758      0  -3.346      0  -2.968      0  -3.101      0  -3.491    
   (  2,  6, 21)  (  1, 17, 20)  (  1, 16, 19)  (  1, 15, 18)  (  1, 18, 22)
  1   1.168      0   1.087      0   1.006      0  0.9076      0 -0.9815    
   (  2,  1,  2)  (  2,  2,  1)  (  2,  1,  2)  (  2,  2,  1)  (  1, 17, 15)
  1 -0.4269      0 -0.7850      0 -0.9635      0  -1.209      0  -1.559    
   (  2,  1,  2)  (  2,  2,  1)  (  2,  1,  2)  (  2,  2,  1)  (  2,  1,  2)
  1  0.6070      0  0.5733      0 -0.4685      0 -0.6780      0 -0.6325    
   (  2,  1,  2)  (  2,  2,  1)  (  1, 15,  8)  (  1, 13,  9)  (  1, 11,  9)
  1 -0.3482      0 -0.6252      0 -0.7931      0  -1.079      0  -1.352    
   (  2,  1,  2)  (  2,  2,  1)  (  2,  1,  2)  (  2,  2,  1)  (  2,  1,  2)
  1  0.4931      0  0.4680      0 -0.3636      0 -0.5208      0 -0.4760    
   (  2,  1,  2)  (  2,  2,  1)  (  1, 14,  8)  (  1, 12,  9)  (  1, 12, 10)
  1 -0.2946      0 -0.4551      0 -0.5779      0 -0.8181      0  -1.018    
   (  1, 13, 20)  (  2,  2,  1)  (  2,  1,  2)  (  2,  2,  1)  (  2,  1,  2)
  1  0.3867      0  0.3544      0 -0.2705      0 -0.3897      0 -0.3765    
   (  2,  1,  2)  (  2,  2,  1)  (  1, 14,  8)  (  1, 12,  9)  (  2,  2,  1)
  1 -0.2498      0 -0.3387      0 -0.4226      0 -0.6161      0 -0.7764    
   (  1, 13, 20)  (  2,  2,  1)  (  2,  1,  2)  (  2,  2,  1)  (  2,  1,  2)
  1 -0.3097      0  0.2642      0 -0.1995      0 -0.2855      0 -0.2960    
   (  1, 13, 20)  (  2,  2,  1)  (  1, 13,  8)  (  1, 12,  9)  (  2,  2,  1)
  1 -0.2042      0 -0.2523      0 -0.3108      0 -0.4601      0 -0.5889    
   (  1, 13, 20)  (  2,  2,  1)  (  2,  1,  2)  (  2,  2,  1)  (  2,  1,  2)
  1 -0.2523      0  0.1956      0 -0.1478      0 -0.2074      0 -0.2296    
   (  1, 13, 20)  (  2,  2,  1)  (  1, 13,  8)  (  1, 12,  9)  (  2,  2,  1)
  1 -0.1613      0 -0.1874      0 -0.2296      0 -0.3425      0 -0.4444    
   (  1, 13, 20)  (  2,  2,  1)  (  2,  1,  2)  (  2,  2,  1)  (  2,  1,  2)
  1 -0.2001      0  0.1445      0 -0.1097      0 -0.1503      0 -0.1760    
   (  1, 13, 20)  (  2,  2,  1)  (  1, 13,  8)  (  2, 12,  9)  (  2,  2,  1)
  1 -0.1242      0 -0.1387      0 -0.1699      0 -0.2547      0 -0.3339    
   (  1, 13, 20)  (  2,  2,  1)  (  2,  1,  2)  (  2,  2,  1)  (  2,  1,  2)
  1 -0.1555      0  0.1068      0 -0.8142E-01  0 -0.1090      0 -0.1335    
   (  1, 13, 20)  (  2,  2,  1)  (  1, 13,  8)  (  2, 12,  9)  (  2,  2,  1)
  1 -0.9401E-01  0 -0.1024      0 -0.1257      0 -0.1893      0 -0.2500    
   (  1, 13, 20)  (  2,  2,  1)  (  2,  1,  2)  (  2,  2,  1)  (  2,  1,  2)
  1 -0.1191      0  0.7889E-01  0 -0.6039E-01  0 -0.7904E-01  0 -0.1004    
   (  1, 13, 20)  (  2,  2,  1)  (  1, 13,  8)  (  2, 12,  9)  (  2,  2,  1)
  1 -0.7036E-01  0 -0.7533E-01  0 -0.9294E-01  0 -0.1405      0 -0.1867    
   (  1, 13, 20)  (  2,  2,  1)  (  2,  1,  2)  (  2,  2,  1)  (  2,  1,  2)
  1 -0.9036E-01  0  0.5824E-01  0 -0.4473E-01  0 -0.5729E-01  0 -0.7493E-01
   (  1, 13, 20)  (  2,  2,  1)  (  1, 13,  8)  (  2, 12,  9)  (  2,  2,  1)
  1 -0.5227E-01  0 -0.5527E-01  0 -0.6861E-01  0 -0.1042      0 -0.1391    
   (  1, 13, 20)  (  2,  2,  1)  (  2,  1,  2)  (  2,  2,  1)  (  2,  1,  2)
  1 -0.6803E-01  0  0.4294E-01  0 -0.3307E-01  0 -0.4151E-01  0 -0.5559E-01
   (  1, 13, 20)  (  2,  2,  1)  (  1, 13,  8)  (  2, 12,  9)  (  2,  2,  1)
  1 -0.3860E-01  0 -0.4044E-01  0 -0.5055E-01  0 -0.7712E-01  0 -0.1034    
   (  1, 13, 20)  (  2,  2,  1)  (  2,  1,  2)  (  2,  2,  1)  (  2,  1,  2)
  1 -0.5091E-01  0  0.3161E-01  0 -0.2440E-01  0 -0.3020E-01  0 -0.4103E-01
   (  1, 13, 20)  (  2,  2,  1)  (  1, 13,  8)  (  2,  1,  2)  (  2,  2,  1)
  1 -0.2838E-01  0 -0.2951E-01  0 -0.3715E-01  0 -0.5699E-01  0 -0.7677E-01
   (  1, 13, 20)  (  2,  2,  1)  (  2,  1,  2)  (  2,  2,  1)  (  2,  1,  2)
  1 -0.3790E-01  0  0.2322E-01  0 -0.1797E-01  0 -0.2257E-01  0 -0.3013E-01
   (  1, 13, 20)  (  2,  2,  1)  (  1, 13,  8)  (  2,  1,  2)  (  2,  2,  1)
  1 -0.2078E-01  0 -0.2147E-01  0 -0.2723E-01  0 -0.4201E-01  0 -0.5687E-01
   (  1, 13, 20)  (  2,  2,  1)  (  2,  1,  2)  (  2,  2,  1)  (  2,  1,  2)
  1 -0.2809E-01  0  0.1701E-01  0 -0.1321E-01  0 -0.1680E-01  0 -0.2203E-01
   (  1, 13, 20)  (  2,  2,  1)  (  1, 13,  8)  (  2,  1,  2)  (  2,  2,  1)
  1 -0.1515E-01  0 -0.1557E-01  0 -0.1990E-01  0 -0.3090E-01  0 -0.4205E-01
   (  1, 13, 20)  (  2,  2,  1)  (  2,  1,  2)  (  2,  2,  1)  (  2,  1,  2)
  1 -0.2073E-01  0  0.1241E-01  0 -0.9683E-02  0 -0.1245E-01  0 -0.1604E-01
   (  1, 13, 20)  (  2,  2,  1)  (  1, 13,  8)  (  2,  1,  2)  (  2,  2,  1)
  1 -0.1100E-01  0 -0.1124E-01  0 -0.1450E-01  0 -0.2265E-01  0 -0.3102E-01
   (  1, 13, 20)  (  2,  2,  1)  (  2,  1,  2)  (  2,  2,  1)  (  2,  1,  2)
  1 -0.1524E-01  0  0.9024E-02  0 -0.7085E-02  0 -0.9206E-02  0 -0.1163E-01
   (  1, 13, 20)  (  2,  2,  1)  (  1, 13,  8)  (  2,  1,  2)  (  2,  2,  1)
  1 -0.7946E-02  0 -0.8086E-02  0 -0.1052E-01  0 -0.1655E-01  0 -0.2282E-01
   (  1, 13, 20)  (  2,  2,  1)  (  2,  1,  2)  (  2,  2,  1)  (  2,  1,  2)
  1 -0.1116E-01  0  0.6530E-02  0 -0.5192E-02  0 -0.6786E-02  0 -0.8402E-02
   (  1, 13, 20)  (  2,  2,  1)  (  2,  2,  1)  (  2,  1,  2)  (  2,  2,  1)
  1 -0.5715E-02  0 -0.5788E-02  0 -0.7597E-02  0 -0.1205E-01  0 -0.1674E-01
   (  1, 13, 20)  (  2,  2,  1)  (  2,  1,  2)  (  2,  2,  1)  (  2,  1,  2)
  1 -0.8143E-02  0  0.4699E-02  0 -0.3876E-02  0 -0.4989E-02  0 -0.6043E-02
   (  1, 13, 20)  (  2,  2,  1)  (  2,  2,  1)  (  2,  1,  2)  (  2,  2,  1)
  1 -0.4088E-02  0 -0.4119E-02  0 -0.5462E-02  0 -0.8732E-02  0 -0.1223E-01
   (  1, 13, 20)  (  2,  2,  1)  (  2,  1,  2)  (  2,  2,  1)  (  2,  1,  2)
  1 -0.5916E-02  0 -0.3362E-02  0 -0.2891E-02  0 -0.3660E-02  0 -0.4327E-02
   (  1, 13, 20)  (  2,  1,  2)  (  2,  2,  1)  (  2,  1,  2)  (  2,  2,  1)
  1 -0.2908E-02  0 -0.2914E-02  0 -0.3907E-02  0 -0.6300E-02  0 -0.8904E-02
   (  1, 13, 20)  (  2,  2,  1)  (  2,  1,  2)  (  2,  2,  1)  (  2,  1,  2)
  1 -0.4279E-02  0 -0.2477E-02  0 -0.2157E-02  0 -0.2681E-02  0 -0.3083E-02
   (  1, 13, 20)  (  2,  1,  2)  (  2,  2,  1)  (  2,  1,  2)  (  2,  2,  1)
  1 -0.2055E-02  0 -0.2046E-02  0 -0.2778E-02  0 -0.4521E-02  0 -0.6450E-02
   (  1, 13, 20)  (  2,  2,  1)  (  2,  1,  2)  (  2,  2,  1)  (  2,  1,  2)
  1 -0.3081E-02  0 -0.1821E-02  0 -0.1609E-02  0 -0.1960E-02  0 -0.2184E-02
   (  1, 13, 20)  (  2,  1,  2)  (  2,  2,  1)  (  2,  1,  2)  (  2,  2,  1)
  1 -0.1443E-02  0 -0.1426E-02  0 -0.1964E-02  0 -0.3227E-02  0 -0.4648E-02
   (  1, 13, 20)  (  2,  2,  1)  (  2,  1,  2)  (  2,  2,  1)  (  2,  1,  2)
  1 -0.2208E-02  0 -0.1336E-02  0 -0.1201E-02  0 -0.1430E-02  0 -0.1537E-02
   (  1, 13, 20)  (  2,  1,  2)  (  2,  2,  1)  (  2,  1,  2)  (  2,  2,  1)
  1 -0.1006E-02  0 -0.9849E-03  0 -0.1379E-02  0 -0.2290E-02  0 -0.3329E-02
   (  1, 13, 20)  (  2,  2,  1)  (  2,  1,  2)  (  2,  2,  1)  (  2,  1,  2)
  1 -0.1573E-02  0 -0.9782E-03  0 -0.8978E-03  0 -0.1041E-02  0 -0.1073E-02
   (  1, 13, 20)  (  2,  1,  2)  (  2,  2,  1)  (  2,  1,  2)  (  2,  2,  1)
  1 -0.6954E-03  0 -0.6741E-03  0 -0.9624E-03  0 -0.1616E-02  0 -0.2370E-02
   (  1, 13, 20)  (  2,  2,  1)  (  2,  1,  2)  (  2,  2,  1)  (  2,  1,  2)
  1 -0.1115E-02  0 -0.7141E-03  0 -0.6709E-03  0 -0.7549E-03  0 -0.7418E-03
   (  1, 13, 20)  (  2,  1,  2)  (  2,  2,  1)  (  2,  1,  2)  (  2,  2,  1)
  1 -0.4768E-03  0 -0.4709E-03  0 -0.7011E-03  0 -0.1134E-02  0 -0.1677E-02
   (  1, 13, 20)  (  1,  3, 14)  (  1, 18,  1)  (  2,  2,  1)  (  2,  1,  2)
  1 -0.7853E-03  0 -0.5195E-03  0 -0.5006E-03  0 -0.5448E-03  0 -0.5071E-03
   (  1, 13, 20)  (  2,  1,  2)  (  2,  2,  1)  (  2,  1,  2)  (  2,  2,  1)
  1 -0.3242E-03  0 -0.3417E-03  0 -0.5103E-03  0 -0.7909E-03  0 -0.1179E-02
   (  1, 13, 20)  (  1,  3, 14)  (  1, 18,  1)  (  2,  2,  1)  (  2,  1,  2)
  1 -0.5500E-03  0 -0.3759E-03  0 -0.3721E-03  0 -0.3904E-03  0 -0.3424E-03
   (  1, 13, 20)  (  2,  1,  2)  (  2,  2,  1)  (  2,  1,  2)  (  2,  2,  1)
  1 -0.2185E-03  0 -0.2490E-03  0 -0.3696E-03  0 -0.5489E-03  0 -0.8253E-03
   (  1, 13, 20)  (  1,  2, 13)  (  1, 18,  1)  (  2,  2,  1)  (  2,  1,  2)
  1 -0.3827E-03  0 -0.2702E-03  0 -0.2746E-03  0 -0.2771E-03  0 -0.2282E-03
   (  1, 13, 20)  (  2,  1,  2)  (  2,  2,  1)  (  2,  1,  2)  (  2,  2,  1)
  1 -0.1462E-03  0 -0.1801E-03  0 -0.2659E-03  0 -0.3790E-03  0 -0.5751E-03
   (  1, 13, 20)  (  1,  2, 13)  (  1, 18,  1)  (  2,  2,  1)  (  2,  1,  2)
  1 -0.2648E-03  0 -0.1925E-03  0 -0.2005E-03  0 -0.1945E-03  0 -0.1502E-03
   (  1, 13, 20)  (  2,  1,  2)  (  2,  2,  1)  (  2,  1,  2)  (  2,  2,  1)
  1 -0.9694E-04  0 -0.1290E-03  0 -0.1893E-03  0 -0.2604E-03  0 -0.3991E-03
   (  1, 13, 20)  (  1,  2, 13)  (  1, 18,  1)  (  2,  2,  1)  (  2,  1,  2)
  1 -0.1821E-03  0 -0.1356E-03  0 -0.1442E-03  0 -0.1349E-03  0 -0.9770E-04
   (  1, 13, 20)  (  2,  1,  2)  (  2,  2,  1)  (  2,  1,  2)  (  2,  2,  1)
  1 -0.6364E-04  0 -0.9116E-04  0 -0.1332E-03  0 -0.1779E-03  0 -0.2758E-03
   (  1, 13, 20)  (  1,  2, 13)  (  1, 18,  1)  (  2,  2,  1)  (  2,  1,  2)
  1 -0.1243E-03  0 -0.9430E-04  0 -0.1021E-03  0 -0.9232E-04  0 -0.6292E-04
   (  1, 13, 20)  (  2,  1,  2)  (  2,  2,  1)  (  2,  1,  2)  (  2,  2,  1)
  1 -0.4165E-04  0 -0.6355E-04  0 -0.9221E-04  0 -0.1208E-03  0 -0.1896E-03
   (  1, 13, 20)  (  1,  2, 13)  (  1, 18,  1)  (  2,  2,  1)  (  2,  1,  2)
  1 -0.8425E-04  0 -0.6470E-04  0 -0.7086E-04  0 -0.6237E-04  0 -0.4017E-04
   (  1, 13, 20)  (  2,  1,  2)  (  2,  2,  1)  (  2,  1,  2)  (  2,  2,  1)
  1 -0.2704E-04  0 -0.4362E-04  0 -0.6308E-04  0 -0.8149E-04  0 -0.1295E-03
   (  1, 13, 20)  (  1,  2, 13)  (  2,  1, 14)  (  2,  2,  1)  (  2,  1,  2)
  1 -0.5655E-04  0 -0.4375E-04  0 -0.4830E-04  0 -0.4159E-04  0 -0.2540E-04
   (  1, 13, 20)  (  2,  1,  2)  (  2,  2,  1)  (  2,  1,  2)  (  2,  2,  1)
  1 -0.1744E-04  0 -0.2954E-04  0 -0.4291E-04  0 -0.5446E-04  0 -0.8771E-04
   (  1, 13, 20)  (  1,  2, 13)  (  2,  1, 14)  (  2,  2,  1)  (  2,  1,  2)
  1 -0.3755E-04  0 -0.2916E-04  0 -0.3227E-04  0 -0.2737E-04  0 -0.1595E-04
   (  1, 13, 20)  (  2,  1,  2)  (  2,  2,  1)  (  2,  1,  2)  (  2,  2,  1)
  1 -0.1105E-04  0 -0.1966E-04  0 -0.2862E-04  0 -0.3611E-04  0 -0.5885E-04
   (  1, 13, 20)  (  1,  2, 13)  (  2,  1, 14)  (  2,  2,  1)  (  2,  1,  2)
  1 -0.2478E-04  0 -0.1912E-04  0 -0.2116E-04  0 -0.1778E-04  0 -0.9903E-05
   (  1, 13, 20)  (  2,  1,  2)  (  2,  2,  1)  (  2,  1,  2)  (  2,  2,  1)
  1 -0.6957E-05  0 -0.1288E-04  0 -0.1872E-04  0 -0.2364E-04  0 -0.3905E-04
   (  1, 13, 20)  (  1,  2, 13)  (  2,  1, 14)  (  2,  2,  1)  (  2,  1,  2)
  1 -0.1615E-04  0 -0.1233E-04  0 -0.1362E-04  0 -0.1141E-04  0 -0.6093E-05
   (  1, 13, 20)  (  2,  1,  2)  (  2,  2,  1)  (  2,  1,  2)  (  2,  2,  1)
  1 -0.4340E-05  0 -0.8310E-05  0 -0.1203E-04  0 -0.1531E-04  0 -0.2564E-04
   (  1, 13, 20)  (  1,  2, 13)  (  2,  1, 14)  (  2,  2,  1)  (  2,  1,  2)
  1 -0.1032E-04  0 -0.7829E-05  0 -0.8581E-05  0 -0.7197E-05  0 -0.3699E-05
   (  1, 13, 20)  (  2,  1,  2)  (  2,  2,  1)  (  2,  1,  2)  (  2,  2,  1)
  1 -0.2677E-05  0 -0.5262E-05  0 -0.7551E-05  0 -0.9764E-05  0 -0.1652E-04
   (  1, 13, 20)  (  1,  2, 12)  (  2,  1, 14)  (  2,  2,  1)  (  2,  1,  2)
  1 -0.6504E-05  0 -0.4901E-05  0 -0.5308E-05  0 -0.4449E-05  0 -0.2202E-05
   (  1, 13, 20)  (  2,  1,  2)  (  2,  2,  1)  (  2,  1,  2)  (  2,  2,  1)
  1 -0.1626E-05  0 -0.3257E-05  0 -0.4659E-05  0 -0.6111E-05  0 -0.1049E-04
   (  1, 13, 20)  (  1,  2, 12)  (  2,  1, 14)  (  2,  2,  1)  (  2,  1,  2)
  1 -0.3976E-05  0 -0.3009E-05  0 -0.3192E-05  0 -0.2699E-05  0 -0.1302E-05
   (  1, 13, 20)  (  2,  1,  2)  (  2,  2,  1)  (  2,  1,  2)  (  2,  2,  1)
  1 -0.9752E-06  0 -0.2001E-05  0 -0.2772E-05  0 -0.3804E-05  0 -0.6551E-05
   (  1, 13, 20)  (  1,  2, 12)  (  2,  1, 14)  (  2,  2,  1)  (  2,  1,  2)
  1 -0.2394E-05  0 -0.1808E-05  0 -0.1878E-05  0 -0.1616E-05  0 -0.7573E-06
   (  1, 13, 20)  (  2,  1,  2)  (  2,  2,  1)  (  2,  1,  2)  (  2,  2,  1)
  1 -0.6562E-06  0 -0.1189E-05  0 -0.1648E-05  0 -0.2277E-05  0 -0.4001E-05
   (  1, 13, 20)  (  1,  1, 13)  (  2,  1, 14)  (  2,  2,  1)  (  2,  1,  2)
  1 -0.1249E-05  0 -0.1112E-05  0 -0.1101E-05  0 -0.9249E-06  0 -0.4153E-06
   (  1, 13, 20)  (  2,  1,  2)  (  2,  2,  1)  (  2,  1,  2)  (  2,  2,  1)
  1 -0.3613E-06  0 -0.6782E-06  0 -0.9736E-06  0 -0.1366E-05  0 -0.2416E-05
   (  1, 13, 20)  (  1,  2, 12)  (  2,  1, 14)  (  2,  2,  1)  (  2,  1,  2)
  1 -0.8364E-06  0 -0.6558E-06  0 -0.6265E-06  0 -0.5312E-06  0 -0.2371E-06
   (  1, 13, 20)  (  2,  1,  2)  (  2,  2,  1)  (  2,  1,  2)  (  2,  2,  1)
  1 -0.2221E-06  0 -0.3709E-06  0 -0.5324E-06  0 -0.7691E-06  0 -0.1384E-05
   (  1, 13, 20)  (  1,  1, 13)  (  1,  1, 14)  (  2,  2,  1)  (  2,  1,  2)
  1 -0.4186E-06  0 -0.3854E-06  0 -0.3471E-06  0 -0.2935E-06  0 -0.1336E-06
   (  2,  2,  1)  (  2,  1,  2)  (  2,  2,  1)  (  2,  1,  2)  (  2,  2,  1)
  1 -0.8932E-07  0 -0.2189E-06  0 -0.2909E-06  0 -0.4449E-06  0 -0.8088E-06
   (  1, 13, 20)  (  2, 20, 14)  (  1, 11,  1)  (  2,  2,  1)  (  2,  1,  2)
  1 -0.2311E-06  0 -0.2113E-06  0 -0.1824E-06  0 -0.1640E-06  0 -0.7681E-07
   (  2,  2,  1)  (  2,  1,  2)  (  2,  2,  1)  (  2,  1,  2)  (  2,  2,  1)
  1 -0.3834E-07  0 -0.1245E-06  0 -0.1656E-06  0 -0.2576E-06  0 -0.4756E-06
   (  1, 13, 20)  (  1, 11,  4)  (  1, 11,  1)  (  2,  2,  1)  (  2,  1,  2)
  1 -0.1358E-06  0 -0.1164E-06  0 -0.9876E-07  0 -0.8848E-07  0 -0.3889E-07
   (  2,  2,  1)  (  2,  1,  2)  (  2,  2,  1)  (  2,  1,  2)  (  2,  2,  1)
  1 -0.3402E-07  0 -0.7022E-07  0 -0.9848E-07  0 -0.1307E-06  0 -0.2744E-06
   (  1, 13, 20)  (  1, 11,  3)  (  1, 11,  1)  (  2,  2,  1)  (  2,  1,  2)
  1 -0.7388E-07  0 -0.6143E-07  0 -0.5084E-07  0 -0.4568E-07  0 -0.2188E-07
   (  2,  2,  1)  (  2,  1,  2)  (  2,  2,  1)  (  2,  1,  2)  (  2,  2,  1)
  1  0.1985E-07  0 -0.3445E-07  0 -0.4617E-07  0 -0.6512E-07  0 -0.1288E-06
   (  1, 10, 18)  (  1, 10,  4)  (  1, 10,  1)  (  2,  2,  1)  (  2,  1,  2)
  1 -0.4293E-07  0 -0.3727E-07  0 -0.3016E-07  0 -0.2601E-07  0 -0.1307E-07
   (  2,  2,  1)  (  2,  1,  2)  (  2,  2,  1)  (  2,  1,  2)  (  2,  2,  1)
  1 -0.1699E-07  0 -0.1896E-07  0 -0.2829E-07  0 -0.3445E-07  0 -0.7445E-07
   (  1, 15, 17)  (  1, 20, 15)  (  1, 11,  1)  (  1, 11,  1)  (  2, 20,  1)
  1 -0.2291E-07  0 -0.2009E-07  0 -0.1724E-07  0 -0.1587E-07  0 -0.9080E-08
   (  2,  2,  1)  (  2,  1,  2)  (  2,  2,  1)  (  2,  1,  2)  (  2,  2,  1)
  1 -0.1629E-07  0 -0.1048E-07  0 -0.1662E-07  0 -0.1771E-07  0 -0.3951E-07
   (  1, 17, 12)  (  2, 17, 11)  (  1,  1, 15)  (  1, 10,  1)  (  2,  1,  2)
  1 -0.1971E-07  0 -0.1288E-07  0 -0.1059E-07  0 -0.9637E-08  1 -0.4245E-08
   (  1, 17, 13)  (  2,  1,  2)  (  2,  2,  1)  (  2,  1,  2)  (  1, 17, 12)

 MAXIMUM RESIDUAL FOR EACH ITERATION (1 INDICATES THE FIRST INNER ITERATION):

    RESIDUAL       RESIDUAL       RESIDUAL       RESIDUAL       RESIDUAL    
   LAYER,ROW,COL  LAYER,ROW,COL  LAYER,ROW,COL  LAYER,ROW,COL  LAYER,ROW,COL
 ---------------------------------------------------------------------------
  1   8282.      0  -7112.      0   6222.      0   3973.      0  -2867.    
   (  2,  2, 27)  (  2, 20, 28)  (  2, 20, 28)  (  2, 20, 27)  (  2, 20, 27)
  1   2174.      0  -2150.      0   2110.      0  -2113.      0  -1846.    
   (  2,  2,  1)  (  2,  2,  1)  (  2,  2,  1)  (  2,  2,  1)  (  2,  1,  2)
  1  -1377.      0  -1352.      0  -946.4      0   670.6      0   516.7    
   (  2,  2,  1)  (  2,  1,  2)  (  2,  2,  1)  (  2,  2,  1)  (  2,  1,  2)
  1   551.4      0   656.1      0   777.5      0   785.1      0  -933.2    
   (  2,  2,  1)  (  2,  1,  2)  (  2,  2,  1)  (  2,  1,  2)  (  2,  1,  2)
  1   747.2      0  -692.3      0   572.0      0   465.6      0   398.6    
   (  2,  1,  2)  (  2,  1,  2)  (  2,  1,  2)  (  2,  2,  1)  (  2,  1,  2)
  1   449.3      0   491.3      0   567.5      0  -603.2      0  -735.2    
   (  2,  2,  1)  (  2,  1,  2)  (  2,  2,  1)  (  2,  2,  1)  (  2,  1,  2)
  1   581.0      0  -499.3      0   423.8      0   360.5      0  -304.8    
   (  2,  1,  2)  (  2,  1,  2)  (  2,  1,  2)  (  2,  2,  1)  (  2,  2,  1)
  1   351.7      0   365.7      0   419.8      0  -469.0      0  -574.9    
   (  2,  2,  1)  (  2,  1,  2)  (  2,  2,  1)  (  2,  2,  1)  (  2,  1,  2)
  1   453.6      0  -363.3      0   312.1      0   278.2      0   263.6    
   (  2,  1,  2)  (  2,  1,  2)  (  2,  1,  2)  (  2,  2,  1)  (  1, 13, 20)
  1   271.7      0   271.2      0   309.0      0   363.1      0  -445.6    
   (  2,  2,  1)  (  2,  1,  2)  (  2,  2,  1)  (  2,  1,  2)  (  2,  1,  2)
  1   351.7      0  -265.8      0   230.2      0   212.6      0   223.5    
   (  2,  1,  2)  (  2,  1,  2)  (  2,  1,  2)  (  2,  2,  1)  (  1, 13, 20)
  1   206.8      0   201.6      0   228.0      0   282.2      0  -341.2    
   (  2,  2,  1)  (  2,  1,  2)  (  2,  2,  1)  (  2,  1,  2)  (  2,  1,  2)
  1   270.3      0  -195.3      0   170.8      0   161.0      0   180.2    
   (  2,  1,  2)  (  2,  1,  2)  (  2,  1,  2)  (  2,  2,  1)  (  1, 13, 20)
  1   155.5      0   150.4      0   168.8      0   217.6      0  -258.0    
   (  2,  2,  1)  (  2,  1,  2)  (  2,  2,  1)  (  2,  1,  2)  (  2,  1,  2)
  1   206.2      0  -143.9      0   127.3      0   120.8      0   140.4    
   (  2,  1,  2)  (  2,  1,  2)  (  2,  1,  2)  (  2,  2,  1)  (  1, 13, 20)
  1   115.8      0   112.3      0   125.1      0   166.6      0  -193.1    
   (  2,  2,  1)  (  2,  1,  2)  (  2,  2,  1)  (  2,  1,  2)  (  2,  1,  2)
  1   156.4      0  -106.1      0   95.09      0   90.05      0   107.0    
   (  2,  1,  2)  (  2,  1,  2)  (  2,  1,  2)  (  2,  2,  1)  (  1, 13, 20)
  1   85.69      0   83.89      0   92.72      0   126.8      0  -143.4    
   (  2,  2,  1)  (  2,  1,  2)  (  2,  2,  1)  (  2,  1,  2)  (  2,  1,  2)
  1   118.1      0  -78.27      0   71.03      0   66.72      0   80.48    
   (  2,  1,  2)  (  2,  1,  2)  (  2,  1,  2)  (  2,  2,  1)  (  1, 13, 20)
  1   63.06      0   62.58      0   68.66      0   96.02      0  -105.9    
   (  2,  2,  1)  (  2,  1,  2)  (  2,  2,  1)  (  2,  1,  2)  (  2,  1,  2)
  1   88.86      0   57.76      0   53.00      0  -49.59      0   60.02    
   (  2,  1,  2)  (  2,  2,  1)  (  2,  1,  2)  (  1, 13, 20)  (  1, 13, 20)
  1  -46.43      0   46.60      0   50.76      0   72.45      0  -77.82    
   (  1, 13, 20)  (  2,  1,  2)  (  2,  2,  1)  (  2,  1,  2)  (  2,  1,  2)
  1   66.66      0   42.68      0   39.46      0  -36.67      0   44.49    
   (  2,  1,  2)  (  2,  2,  1)  (  2,  1,  2)  (  1, 13, 20)  (  1, 13, 20)
  1  -34.16      0   34.62      0   37.45      0   54.48      0  -57.01    
   (  1, 13, 20)  (  2,  1,  2)  (  2,  2,  1)  (  2,  1,  2)  (  2,  1,  2)
  1   49.87      0   31.48      0   29.31      0  -26.95      0   32.83    
   (  2,  1,  2)  (  2,  2,  1)  (  2,  1,  2)  (  1, 13, 20)  (  1, 13, 20)
  1  -24.98      0   25.65      0   27.57      0   40.84      0  -41.63    
   (  1, 13, 20)  (  2,  1,  2)  (  2,  2,  1)  (  2,  1,  2)  (  2,  1,  2)
  1   37.20      0   23.16      0   21.71      0  -19.68      0   24.12    
   (  2,  1,  2)  (  2,  2,  1)  (  2,  1,  2)  (  1, 13, 20)  (  1, 13, 20)
  1  -18.17      0   18.96      0   20.25      0   30.52      0  -30.31    
   (  1, 13, 20)  (  2,  1,  2)  (  2,  2,  1)  (  2,  1,  2)  (  2,  1,  2)
  1   27.67      0   17.00      0   16.04      0  -14.30      0   17.65    
   (  2,  1,  2)  (  2,  2,  1)  (  2,  1,  2)  (  1, 13, 20)  (  1, 13, 20)
  1  -13.15      0   13.98      0   14.83      0   22.73      0  -22.01    
   (  1, 13, 20)  (  2,  1,  2)  (  2,  2,  1)  (  2,  1,  2)  (  2,  1,  2)
  1   20.52      0   12.44      0   11.81      0  -10.34      0   12.86    
   (  2,  1,  2)  (  2,  2,  1)  (  2,  1,  2)  (  1, 13, 20)  (  1, 13, 20)
  1  -9.476      0   10.28      0   10.83      0   16.88      0  -15.93    
   (  1, 13, 20)  (  2,  1,  2)  (  2,  2,  1)  (  2,  1,  2)  (  2,  1,  2)
  1   15.17      0   9.072      0   8.670      0  -7.432      0   9.325    
   (  2,  1,  2)  (  2,  2,  1)  (  2,  1,  2)  (  1, 13, 20)  (  1, 13, 20)
  1  -6.793      0   7.533      0   7.886      0   12.49      0  -11.49    
   (  1, 13, 20)  (  2,  1,  2)  (  2,  2,  1)  (  2,  1,  2)  (  2,  1,  2)
  1   11.18      0   6.597      0   6.344      0  -5.314      0   6.729    
   (  2,  1,  2)  (  2,  2,  1)  (  2,  1,  2)  (  1, 13, 20)  (  1, 13, 20)
  1  -4.845      0   5.505      0   5.725      0   9.203      0  -8.257    
   (  1, 13, 20)  (  2,  1,  2)  (  2,  2,  1)  (  2,  1,  2)  (  2,  1,  2)
  1   8.206      0   4.781      0   4.627      0  -3.780      0   4.828    
   (  2,  1,  2)  (  2,  2,  1)  (  2,  1,  2)  (  1, 13, 20)  (  1, 13, 20)
  1  -3.438      0   4.010      0   4.142      0   6.757      0  -5.909    
   (  1, 13, 20)  (  2,  1,  2)  (  2,  2,  1)  (  2,  1,  2)  (  2,  1,  2)
  1   6.001      0   3.453      0   3.363      0  -2.673      0   3.443    
   (  2,  1,  2)  (  2,  2,  1)  (  2,  1,  2)  (  1, 13, 20)  (  1, 13, 20)
  1  -2.427      0   2.912      0   2.987      0   4.941      0  -4.208    
   (  1, 13, 20)  (  2,  1,  2)  (  2,  2,  1)  (  2,  1,  2)  (  2,  1,  2)
  1   4.369      0   2.486      0   2.437      0  -1.880      0   2.438    
   (  2,  1,  2)  (  2,  2,  1)  (  2,  1,  2)  (  1, 13, 20)  (  1, 13, 20)
  1  -1.703      0   2.108      0   2.146      0   3.596      0  -2.980    
   (  1, 13, 20)  (  2,  1,  2)  (  2,  2,  1)  (  2,  1,  2)  (  2,  1,  2)
  1   3.166      0   1.783      0   1.760      0  -1.314      0   1.713    
   (  2,  1,  2)  (  2,  2,  1)  (  2,  1,  2)  (  1, 13, 20)  (  1, 13, 20)
  1  -1.188      0   1.521      0   1.537      0   2.605      0  -2.098    
   (  1, 13, 20)  (  2,  1,  2)  (  2,  2,  1)  (  2,  1,  2)  (  2,  1,  2)
  1   2.282      0   1.275      0   1.266      0 -0.9133      0   1.194    
   (  2,  1,  2)  (  2,  2,  1)  (  2,  1,  2)  (  1, 13, 20)  (  1, 13, 20)
  1 -0.8243      0   1.094      0   1.097      0   1.877      0  -1.467    
   (  1, 13, 20)  (  2,  1,  2)  (  2,  2,  1)  (  2,  1,  2)  (  2,  1,  2)
  1   1.636      0  0.9082      0  0.9087      0  0.6314      0  0.8242    
   (  2,  1,  2)  (  2,  2,  1)  (  2,  1,  2)  (  2,  2,  1)  (  1, 13, 20)
  1 -0.5682      0  0.7841      0  0.7810      0   1.345      0  -1.018    
   (  1, 13, 20)  (  2,  1,  2)  (  2,  2,  1)  (  2,  1,  2)  (  2,  1,  2)
  1   1.166      0  0.6449      0  0.6499      0  0.4360      0  0.5634    
   (  2,  1,  2)  (  2,  2,  1)  (  2,  1,  2)  (  2,  2,  1)  (  1, 13, 20)
  1  0.3900      0  0.5604      0  0.5540      0  0.9573      0 -0.7010    
   (  2,  2,  1)  (  2,  1,  2)  (  2,  2,  1)  (  2,  1,  2)  (  2,  1,  2)
  1  0.8251      0  0.4563      0  0.4630      0  0.2991      0  0.3811    
   (  2,  1,  2)  (  2,  2,  1)  (  2,  1,  2)  (  2,  2,  1)  (  1, 13, 20)
  1  0.2673      0  0.3993      0  0.3917      0  0.6767      0 -0.4790    
   (  2,  2,  1)  (  2,  1,  2)  (  2,  2,  1)  (  2,  1,  2)  (  2,  1,  2)
  1  0.5799      0  0.3215      0  0.3284      0  0.2038      0  0.2551    
   (  2,  1,  2)  (  2,  2,  1)  (  2,  1,  2)  (  2,  2,  1)  (  1, 13, 20)
  1  0.1821      0  0.2834      0  0.2758      0  0.4747      0 -0.3249    
   (  2,  2,  1)  (  2,  1,  2)  (  2,  2,  1)  (  2,  1,  2)  (  2,  1,  2)
  1  0.4044      0  0.2253      0  0.2316      0  0.1378      0  0.1690    
   (  2,  1,  2)  (  2,  2,  1)  (  2,  1,  2)  (  2,  2,  1)  (  1, 13, 20)
  1  0.1234      0  0.2002      0  0.1932      0  0.3303      0 -0.2190    
   (  2,  2,  1)  (  2,  1,  2)  (  2,  2,  1)  (  2,  1,  2)  (  2,  1,  2)
  1  0.2798      0  0.1568      0  0.1621      0  0.9244E-01  0  0.1109    
   (  2,  1,  2)  (  2,  2,  1)  (  2,  1,  2)  (  2,  2,  1)  (  1, 13, 20)
  1  0.8316E-01  0  0.1406      0  0.1344      0  0.2278      0 -0.1468    
   (  2,  2,  1)  (  2,  1,  2)  (  2,  2,  1)  (  2,  1,  2)  (  2,  1,  2)
  1  0.1920      0  0.1081      0  0.1124      0  0.6158E-01  0  0.7203E-01
   (  2,  1,  2)  (  2,  2,  1)  (  2,  1,  2)  (  2,  2,  1)  (  1, 13, 20)
  1  0.5576E-01  0  0.9797E-01  0  0.9269E-01  0  0.1556      0  0.9850E-01
   (  2,  2,  1)  (  2,  1,  2)  (  2,  2,  1)  (  2,  1,  2)  (  2,  2,  1)
  1  0.1305      0  0.7381E-01  0  0.7716E-01  0  0.4074E-01  0  0.4631E-01
   (  2,  1,  2)  (  2,  2,  1)  (  2,  1,  2)  (  2,  2,  1)  (  1, 13, 20)
  1  0.3709E-01  0  0.6752E-01  0  0.6332E-01  0  0.1053      0  0.6641E-01
   (  2,  2,  1)  (  2,  1,  2)  (  2,  2,  1)  (  2,  1,  2)  (  2,  2,  1)
  1  0.8786E-01  0  0.4982E-01  0  0.5232E-01  0  0.2672E-01  0  0.2957E-01
   (  2,  1,  2)  (  2,  2,  1)  (  2,  1,  2)  (  2,  2,  1)  (  1, 13, 20)
  1  0.2447E-01  0  0.4601E-01  0  0.4276E-01  0  0.7061E-01  0  0.4447E-01
   (  2,  2,  1)  (  2,  1,  2)  (  2,  2,  1)  (  2,  1,  2)  (  2,  2,  1)
  1  0.5859E-01  0  0.3322E-01  0  0.3503E-01  0  0.1737E-01  0  0.1870E-01
   (  2,  1,  2)  (  2,  2,  1)  (  2,  1,  2)  (  2,  2,  1)  (  1, 13, 20)
  1  0.1599E-01  0  0.3090E-01  0  0.2853E-01  0  0.4684E-01  0  0.2956E-01
   (  2,  2,  1)  (  2,  1,  2)  (  2,  2,  1)  (  2,  1,  2)  (  2,  2,  1)
  1  0.3865E-01  0  0.2186E-01  0  0.2313E-01  0  0.1118E-01  0  0.1173E-01
   (  2,  1,  2)  (  2,  2,  1)  (  2,  1,  2)  (  2,  2,  1)  (  1, 13, 20)
  1  0.1036E-01  0  0.2048E-01  0  0.1877E-01  0  0.3072E-01  0  0.1946E-01
   (  2,  2,  1)  (  2,  1,  2)  (  2,  2,  1)  (  2,  1,  2)  (  2,  2,  1)
  1  0.2514E-01  0  0.1417E-01  0  0.1508E-01  0  0.7147E-02  0 -0.7290E-02
   (  2,  1,  2)  (  2,  2,  1)  (  2,  1,  2)  (  2,  2,  1)  (  2,  2,  1)
  1  0.6657E-02  0  0.1338E-01  0  0.1214E-01  0  0.1988E-01  0  0.1268E-01
   (  2,  2,  1)  (  2,  1,  2)  (  2,  2,  1)  (  2,  1,  2)  (  2,  2,  1)
  1  0.1615E-01  0  0.9030E-02  0  0.9690E-02  0  0.4521E-02  0 -0.4512E-02
   (  2,  1,  2)  (  2,  2,  1)  (  2,  1,  2)  (  2,  2,  1)  (  2,  2,  1)
  1  0.4205E-02  0  0.8592E-02  0  0.7741E-02  0  0.1274E-01  0  0.8173E-02
   (  2,  2,  1)  (  2,  1,  2)  (  2,  2,  1)  (  2,  1,  2)  (  2,  2,  1)
  1  0.1024E-01  0  0.5684E-02  0  0.6103E-02  0  0.2809E-02  0 -0.2741E-02
   (  2,  1,  2)  (  2,  2,  1)  (  2,  1,  2)  (  2,  2,  1)  (  2,  2,  1)
  1  0.2607E-02  0  0.5403E-02  0  0.4862E-02  0  0.8044E-02  0  0.5192E-02
   (  2,  2,  1)  (  2,  1,  2)  (  2,  2,  1)  (  2,  1,  2)  (  2,  2,  1)
  1  0.6412E-02  0  0.3516E-02  0  0.3773E-02  0  0.1712E-02  0 -0.1635E-02
   (  2,  1,  2)  (  2,  2,  1)  (  2,  1,  2)  (  2,  2,  1)  (  2,  2,  1)
  1  0.1584E-02  0  0.3329E-02  0  0.2996E-02  0  0.5015E-02  0  0.3270E-02
   (  2,  2,  1)  (  2,  1,  2)  (  2,  2,  1)  (  2,  1,  2)  (  2,  2,  1)
  1  0.3941E-02  0  0.2138E-02  0  0.2286E-02  0  0.1026E-02  0 -0.9579E-03
   (  2,  1,  2)  (  2,  2,  1)  (  2,  1,  2)  (  2,  2,  1)  (  2,  2,  1)
  1  0.9432E-03  0  0.1996E-02  0  0.1838E-02  0  0.3041E-02  0  0.2019E-02
   (  2,  2,  1)  (  2,  1,  2)  (  2,  2,  1)  (  2,  1,  2)  (  2,  2,  1)
  1  0.2382E-02  0  0.1290E-02  0  0.1351E-02  0  0.6092E-03  0 -0.5503E-03
   (  2,  1,  2)  (  2,  2,  1)  (  2,  1,  2)  (  2,  2,  1)  (  2,  2,  1)
  1 -0.5662E-03  0  0.1154E-02  0  0.1115E-02  0  0.1862E-02  0  0.1234E-02
   (  1, 13, 20)  (  2,  1,  2)  (  2,  2,  1)  (  2,  1,  2)  (  2,  2,  1)
  1  0.1484E-02  0  0.7944E-03  0  0.7553E-03  0  0.3159E-03  0 -0.3547E-03
   (  2,  1,  2)  (  2,  2,  1)  (  2,  1,  2)  (  2,  2,  1)  (  2, 13, 19)
  1 -0.3012E-03  0  0.6563E-03  0  0.6695E-03  0  0.1135E-02  0  0.7538E-03
   (  1, 13, 20)  (  2,  1,  2)  (  2,  2,  1)  (  2,  1,  2)  (  2,  2,  1)
  1  0.8718E-03  0  0.4573E-03  0  0.4350E-03  0 -0.1839E-03  0  0.1892E-03
   (  2,  1,  2)  (  2,  2,  1)  (  2,  1,  2)  (  1, 13, 20)  (  1, 13, 20)
  1 -0.1755E-03  0  0.3530E-03  0  0.3881E-03  0  0.6473E-03  0  0.4600E-03
   (  1, 13, 20)  (  2,  1,  2)  (  2,  2,  1)  (  2,  1,  2)  (  2,  2,  1)
  1  0.5133E-03  0  0.2666E-03  0  0.2333E-03  0  0.9369E-04  0 -0.1037E-03
   (  2,  1,  2)  (  2,  2,  1)  (  2,  1,  2)  (  2,  2,  1)  (  2, 12, 20)
  1  0.8026E-04  0  0.1939E-03  0  0.2210E-03  0  0.3535E-03  0  0.2759E-03
   (  2,  2,  1)  (  2,  1,  2)  (  2,  2,  1)  (  2,  1,  2)  (  2,  2,  1)
  1  0.2762E-03  0  0.1520E-03  0  0.1320E-03  0  0.5974E-04  0 -0.4953E-04
   (  2,  1,  2)  (  2,  2,  1)  (  2,  1,  2)  (  2,  2,  1)  (  2, 13, 19)
  1  0.4328E-04  0  0.1122E-03  0  0.1224E-03  0  0.1994E-03  0  0.1646E-03
   (  2,  2,  1)  (  2,  1,  2)  (  2,  2,  1)  (  2,  1,  2)  (  2,  2,  1)
  1  0.1560E-03  0  0.8234E-04  0  0.7268E-04  0  0.3098E-04  0  0.2356E-04
   (  2,  1,  2)  (  2,  2,  1)  (  2,  1,  2)  (  2,  2,  1)  (  2,  1,  2)
  1 -0.2108E-04  0  0.5420E-04  0  0.6148E-04  0  0.1041E-03  0  0.9572E-04
   (  1, 13, 20)  (  2,  1,  2)  (  2,  2,  1)  (  2,  1,  2)  (  2,  2,  1)
  1  0.8178E-04  0  0.4329E-04  0  0.3927E-04  0  0.1739E-04  0  0.1256E-04
   (  2,  1,  2)  (  2,  2,  1)  (  2,  1,  2)  (  2,  2,  1)  (  2,  1,  2)
  1 -0.1050E-04  0  0.2572E-04  0  0.3255E-04  0  0.5041E-04  0  0.5343E-04
   (  1,  9, 22)  (  2,  1,  2)  (  2,  2,  1)  (  2,  1,  2)  (  2,  2,  1)
  1  0.4473E-04  0  0.2470E-04  0  0.2119E-04  0  0.9283E-05  0 -0.7878E-05
   (  2,  1,  2)  (  2,  2,  1)  (  2,  1,  2)  (  2,  2,  1)  (  2,  2,  1)
  1 -0.8769E-05  0  0.1413E-04  0  0.1762E-04  0  0.2955E-04  0  0.3097E-04
   (  1, 15, 17)  (  2,  1,  2)  (  2,  2,  1)  (  2,  1,  2)  (  2,  2,  1)
  1  0.2190E-04  0  0.1301E-04  0  0.1382E-04  0  0.6746E-05  0  0.5676E-05
   (  2,  1,  2)  (  2,  2,  1)  (  2,  1,  2)  (  2,  2,  1)  (  2,  1,  2)
  1  0.4653E-05  0 -0.1201E-04  0 -0.1123E-04  0  0.1406E-04  0  0.1919E-04
   (  1, 17, 13)  (  2, 17, 11)  (  2, 17, 12)  (  2,  1,  2)  (  2,  2,  1)
  1  0.1188E-04  0  0.8855E-05  0  0.6998E-05  0 -0.3686E-05  1  0.5269E-05
   (  2,  1,  2)  (  2,  2,  1)  (  2,  1,  2)  (  1, 17, 13)  (  2,  1,  2)



 OUTPUT CONTROL FOR STRESS PERIOD    1   TIME STEP    1
    SAVE HEAD FOR ALL LAYERS
    SAVE BUDGET

 HEAD WILL BE SAVED ON UNIT   51 AT END OF TIME STEP    1, STRESS PERIOD    1
1
  VOLUMETRIC BUDGET FOR ENTIRE MODEL AT END OF TIME STEP    1, STRESS PERIOD   1
  ------------------------------------------------------------------------------

     CUMULATIVE VOLUMES      L**3       RATES FOR THIS TIME STEP      L**3/T
     ------------------                 ------------------------

           IN:                                      IN:
           ---                                      ---
             STORAGE =           0.0000               STORAGE =           0.0000
       CONSTANT HEAD =           0.0000         CONSTANT HEAD =           0.0000
               WELLS =           0.0000                 WELLS =           0.0000
            RECHARGE =       46400.0000              RECHARGE =       46400.0000

            TOTAL IN =       46400.0000              TOTAL IN =       46400.0000

          OUT:                                     OUT:
          ----                                     ----
             STORAGE =           0.0000               STORAGE =           0.0000
       CONSTANT HEAD =       41400.0000         CONSTANT HEAD =       41400.0000
               WELLS =        5000.0000                 WELLS =        5000.0000
            RECHARGE =           0.0000              RECHARGE =           0.0000

           TOTAL OUT =       46400.0000             TOTAL OUT =       46400.0000

            IN - OUT =           0.0000              IN - OUT =           0.0000

 PERCENT DISCREPANCY =           0.00     PERCENT DISCREPANCY =           0.00






         TIME SUMMARY AT END OF TIME STEP    1 IN STRESS PERIOD    1
                    SECONDS     MINUTES      HOURS       DAYS        YEARS
                    -----------------------------------------------------------
   TIME STEP LENGTH  86400.      1440.0      24.000     1.00000     2.73785E-03
 STRESS PERIOD TIME  86400.      1440.0      24.000     1.00000     2.73785E-03
         TOTAL TIME  86400.      1440.0      24.000     1.00000     2.73785E-03
1

 Run end date and time (yyyy/mm/dd hh:mm:ss): 2017/08/29  9:43:46
 Elapsed run time:  0.062 Seconds

