 LISTING FILE: freyberg.mt3d.list
                         UNIT  16

 OPENING mt3d_link.ftl
 FILE TYPE:FTL   UNIT  10

 OPENING freyberg.mt3d.btn
 FILE TYPE:BTN   UNIT  31

 OPENING freyberg.mt3d.gcg
 FILE TYPE:GCG   UNIT  35

 OPENING freyberg.mt3d.rct
 FILE TYPE:RCT   UNIT  36

 OPENING freyberg.mt3d.adv
 FILE TYPE:ADV   UNIT  32

 OPENING freyberg.mt3d.ssm
 FILE TYPE:SSM   UNIT  34

 OPENING freyberg.mt3d.sft
 FILE TYPE:SFT   UNIT  19

 OPENING ./delr.ref
 FILE TYPE:DATA   UNIT2001

 OPENING ./delc.ref
 FILE TYPE:DATA   UNIT2002

 OPENING ./htop.ref
 FILE TYPE:DATA   UNIT2003

 OPENING ./dz_layer_1.ref
 FILE TYPE:DATA   UNIT2004

 OPENING ./prsity_layer_1.ref
 FILE TYPE:DATA   UNIT2005

 OPENING ./icbund_layer_1.ref
 FILE TYPE:DATA   UNIT2006

 OPENING ./sconc1_layer_1.ref
 FILE TYPE:DATA   UNIT2007

 OPENING ./rc11_layer_1.ref
 FILE TYPE:DATA   UNIT2008

 OPENING ./rc21_layer_1.ref
 FILE TYPE:DATA   UNIT2009

 OPENING ./crch10.ref
 FILE TYPE:DATA   UNIT2011

 OPENING freyberg.mt3d
 FILE TYPE:DATA   UNIT1001

                              +++++++++++++++++++++++++++++++++++++++++++++++++++++++++++++++++++++++
                              +                                                                     +
                              +                              MT3D-USGS                              +
                              +             A Modular 3D Multi-Species Transport Model              +
                              +    For Simulation of Advection, Dispersion and Chemical Reactions   +
                              +                of Contaminants in Groundwater Systems               +
                              +                                                                     +
                              +++++++++++++++++++++++++++++++++++++++++++++++++++++++++++++++++++++++

  ----- 
 | M T | ## BTN for MT3DMS, generated by Flopy.                                          
 | 3 D | ##                                                                              
  ----- 
 THE TRANSPORT MODEL CONSISTS OF     1 LAYER(S)   40 ROW(S)   20 COLUMN(S)
 NUMBER OF STRESS PERIOD(S) FOR TRANSPORT SIMULATION =    1
 NUMBER OF ALL COMPONENTS INCLUDED IN SIMULATION =    1
 NUMBER OF MOBILE COMPONENTS INCLUDED IN SIMULATION =    1
 UNIT FOR TIME IS D   ;  UNIT FOR LENGTH IS M   ;  UNIT FOR MASS IS KG  
 OPTIONAL PACKAGES INCLUDED IN CURRENT SIMULATION:
  o ADV   ON UNIT 32
  o SSM   ON UNIT 34
  o RCT   ON UNIT 36
  o GCG   ON UNIT 35
  o SFT   ON UNIT 19


 BTN1 -- BASIC TRANSPORT PACKAGE, VERSION 1, MAY 2016, INPUT READ FROM UNIT 31

 BTN PACKAGE KEYWORD INPUT: 
 DRYCELL OPTION NOT SET
  DRY CELL BUDGET OMITTED FROM GLAOBAL MASS BALANCE SUMMARY

 LAYER NUMBER  AQUIFER TYPE
 ------------  ------------
       1            1



           WIDTH ALONG ROWS (DELR) 
 READING ON UNIT 2001 WITH FORMAT:           (20E15.6) 



           WIDTH ALONG COLS (DELC) 
 READING ON UNIT 2002 WITH FORMAT:           (40E15.6) 



           TOP ELEV. OF 1ST LAYER  
 READING ON UNIT 2003 WITH FORMAT:           (20E15.6) 



           CELL THICKNESS (DZ)      FOR LAYER   1
 READING ON UNIT 2004 WITH FORMAT:           (20E15.6) 



           POROSITY                 FOR LAYER   1
 READING ON UNIT 2005 WITH FORMAT:           (20E15.6) 



           CONCN. BOUNDARY ARRAY    FOR LAYER   1
 READING ON UNIT 2006 WITH FORMAT:             (20I10) 



           INITIAL CONC.: COMP.  01 FOR LAYER   1
 READING ON UNIT 2007 WITH FORMAT:           (20E15.6) 

 VALUE INDICATING INACTIVE CONCENTRATION CELLS =   0.1000000E+31
 MINIMUM SATURATED THICKNESS [THKMIN] ALLOWED =  0.0100000 OF TOTAL CELL THICKNESS


 OUTPUT CONTROL OPTIONS
 ----------------------

 DO NOT PRINT CELL CONCENTRATION
 DO NOT PRINT PARTICLE NUMBER IN EACH CELL
 DO NOT PRINT RETARDATION FACTOR
 DO NOT PRINT DISPERSION COEFFICIENT
 SAVE DISSOLVED PHASE CONCENTRATIONS IN UNFORMATTED FILES [MT3Dnnn.UCN]
  FOR EACH SPECIES ON UNITS 201 AND ABOVE

 NUMBER OF TIMES AT WHICH SIMULATION RESULTS ARE SAVED =    0

 NUMBER OF OBSERVATION POINTS =    0

 SAVE ONE-LINE SUMMARY OF MASS BUDGETS IN FILES [MT3Dnnn.MAS]
  FOR EACH SPECIES ON UNITS 601 AND ABOVE, EVERY  1 TRANSPORT STEPS

 MAXIMUM LENGTH ALONG THE X (J) AXIS =   5000.000    
 MAXIMUM LENGTH ALONG THE Y (I) AXIS =   10000.00    
 MAXIMUM LENGTH ALONG THE Z (K) AXIS =   35.20274    
 FMI1 -- FLOW MODEL INTERFACE PACKAGE, VERSION 1, MAY 2016, INPUT READ FROM UNIT 10
 FLOW MODEL IS STEADY-STATE
 FLOW MODEL CONTAINS CONSTANT-HEAD CELLS


 ADV1 -- ADVECTION PACKAGE, VERSION 1, MAY 2016, INPUT READ FROM UNIT 32
 ADVECTION IS SOLVED WITH THE ULTIMATE SCHEME
 COURANT NUMBER ALLOWED IN SOLVING THE ADVECTION TERM = 0.750    


 ADVECTION SOLUTION OPTIONS
 --------------------------

 ADVECTION IS SOLVED WITH THE ULTIMATE SCHEME
 COURANT NUMBER ALLOWED IN SOLVING THE ADVECTION TERM = 0.750    

 SSM1 -- SINK & SOURCE MIXING PACKAGE, VERSION 1, MAY 2016, INPUT READ FROM UNIT 34
 HEADER LINE OF THE SSM PACKAGE INPUT FILE:
  t f t f f f f f f f f f f f f f                                        
 MAJOR STRESS COMPONENTS PRESENT IN THE FLOW MODEL:
  o WELL [WEL]
  o RECHARGE [RCH]
 MAXIMUM NUMBER OF POINT SINKS/SOURCES =     816

 RCT1 -- CHEMICAL REACTION PACKAGE, VERSION 1, MAY 2016, INPUT READ FROM UNIT 36
 NO SORPTION [OR DUAL-DOMAIN MODEL] IS SIMULATED
 FIRST-ORDER IRREVERSIBLE REACTION [RADIOACTIVE DECAY OR BIODEGRADATION] IS SIMULATED
 REACTION COEFFICIENTS ASSIGNED CELL-BY-CELL
 INITIAL SORBED/IMMOBILE PHASE CONCENTRATION ASSIGNED BY DEFAULT


 SORPTION AND 1ST/0TH ORDER REACTION PARAMETERS
 ----------------------------------------------




           SOLUTE RXN RATE: COMP 01 FOR LAYER   1
 READING ON UNIT 2008 WITH FORMAT:           (20E15.6) 



           SORBED RXN RATE: COMP 01 FOR LAYER   1
 READING ON UNIT 2009 WITH FORMAT:           (20E15.6) 

 MAXIMUM STEPSIZE WHICH MEETS STABILITY CRITERION OF THE REACTION TERM
 =  50.00     AT K=   1, I=   1, J=   1

 GCG1 -- GENERALIZED CONJUGATE GRADIENT SOLVER PACKAGE, VERSION 1, OCTOBER 2010 INPUT READ FROM UNIT 35
 MAXIMUM OF    1 OUTER ITERATIONS
        AND   50 INNER ITERATIONS ALLOWED FOR CLOSURE
 THE PRECONDITIONING TYPE SELECTED IS MODIFIED INCOMPLETE CHOLESKY (MIC).
 DISPERSION CROSS TERMS LUMPED INTO RIGHT-HAND-SIDE



                                               SOLUTION BY THE GENERALIZED CONJUGATE GRADIENT METHOD
                                               -----------------------------------------------------
                                     MAXIMUM OUTER ITERATIONS ALLOWED FOR CLOSURE =        1
                                     MAXIMUM INNER ITERATIONS ALLOWED FOR CLOSURE =       50
                                                    PRECONDITIONING TYPE SELECTED =    3
                                                           ACCELERATION PARAMETER =     1.0000    
                                       CONCENTRATION CHANGE CRITERION FOR CLOSURE =    0.10000E-04
                                       GCG CONCENTRATION CHANGE PRINTOUT INTERVAL =      999

 SFT1 -- STREAM TRANSPORT PACKAGE, VERSION 1, MAY 2016, INPUT READ FROM UNIT 19
 NUMBER OF STREAMS =    40
 MAXIMUM NUMBER OF STREAM BOUNDARY CONDITIONS =     0
 STREAM-FLOW OBSERVATION OUTPUT  WILL BE SAVED IN UNIT:1001
 TRANSIENT SFR FLOW SOLUTION IS USED; MASS WILL BE CONSERVED
 MASS DOES NOT EXIT VIA STREAM ET


 STREAM INPUT PARAMETERS
 -----------------------

 STREAM SOLVER OPTION =     1
   1 = FINITE DIFFERENCE FORMULATION
 STREAM SOLVER TIME WEIGHTING FACTOR =  0.50000    
   0.0 = EXPLICIT SCHEME IS USED
   0.5 = CRANK-NICOLSON SCHEME IS USED
   1.0 = FULLY IMPLICIT SCHEME IS USED
 STREAM SOLVER SPACE WEIGHTING FACTOR =   1.0000    
   0.0 = CENTRAL-IN-SPACE WEIGHTING
   1.0 = UPSTREAM WEIGHTING
 CLOSURE CRITERION FOR SFT SOLVER =  0.10000E-05
 MAXIMUM NUMBER OF SFR ITERATIONS =    10
 COURANT CONSTRAINT FOR SFR TIME-STEP =   1.0000    
 PRINT OPTION FOR xMD SOLVER =            0

 OPENING FILE ON UNIT   99:
 ./coldsf.ref                                                                                                                                                                                            



           STRM INIT CONC COMP# 001
 READING ON UNIT   99 WITH FORMAT: (40E15.6)           

 OPENING FILE ON UNIT   99:
 ./dispsf.ref                                                                                                                                                                                            



           DISP COEF L2/T COMP# 001
 READING ON UNIT   99 WITH FORMAT: (40E15.6)           


                                   ++++++++++++++++++++++++++++++++++++++++++++++++++++++++++++++
                                                       STRESS PERIOD NO.  001
                                   ++++++++++++++++++++++++++++++++++++++++++++++++++++++++++++++


 LENGTH OF CURRENT STRESS PERIOD =   3650.000    
 NUMBER OF TIME STEPS FOR CURRENT STRESS PERIOD =    1
 TIME STEP MULTIPLIER USED IN FLOW SOLUTION =   1.000000    

 ***Type of Transport Simulation is TRANSIENT

 USER-SPECIFIED TRANSPORT STEPSIZE =   0.000000    D   
 MAXIMUM NUMBER OF TRANSPORT STEPS ALLOWED  IN ONE FLOW TIME STEP =     50000
 MULTIPLIER FOR SUCCESSIVE TRANSPORT STEPS  [USED IN IMPLICIT SCHEMES] =     1.000
 MAXIMUM TRANSPORT STEP SIZE  [USED IN IMPLICIT SCHEMES] =   0.000000    D   

 CONCENTRATION OF RECHARGE FLUXES WILL BE READ IN STRESS PERIOD  1



           RECH. CONC. COMP.  01   
 READING ON UNIT 2011 WITH FORMAT:           (20e15.6) 

       NO    LAYER   ROW   COLUMN   CONCENTRATION       TYPE            COMPONENT
       1       1       1       1       1.000000         MASS LOADING        1
       2       1       1       2       1.000000         MASS LOADING        1
       3       1       1       3       1.000000         MASS LOADING        1
       4       1       1       4       1.000000         MASS LOADING        1
       5       1       1       5       1.000000         MASS LOADING        1
       6       1       1       6       1.000000         MASS LOADING        1
       7       1       1       7       1.000000         MASS LOADING        1
       8       1       1       8       1.000000         MASS LOADING        1
       9       1       1       9       1.000000         MASS LOADING        1
      10       1       1      10       1.000000         MASS LOADING        1
      11       1       1      11       1.100000         MASS LOADING        1
      12       1       1      12       1.200000         MASS LOADING        1
      13       1       1      13       1.300000         MASS LOADING        1
      14       1       1      14       1.400000         MASS LOADING        1
      15       1       1      15       1.500000         MASS LOADING        1
      16       1       2       1       1.000000         MASS LOADING        1
      17       1       2       2       1.000000         MASS LOADING        1
      18       1       2       3       1.000000         MASS LOADING        1
      19       1       2       4       1.000000         MASS LOADING        1
      20       1       2       5       1.000000         MASS LOADING        1
      21       1       2       6       1.000000         MASS LOADING        1
      22       1       2       7       1.000000         MASS LOADING        1
      23       1       2       8       1.000000         MASS LOADING        1
      24       1       2       9       1.000000         MASS LOADING        1
      25       1       2      10       1.000000         MASS LOADING        1
      26       1       2      11       1.100000         MASS LOADING        1
      27       1       2      12       1.200000         MASS LOADING        1
      28       1       2      13       1.300000         MASS LOADING        1
      29       1       2      14       1.400000         MASS LOADING        1
      30       1       2      15       1.500000         MASS LOADING        1
      31       1       3       1       1.000000         MASS LOADING        1
      32       1       3       2       1.000000         MASS LOADING        1
      33       1       3       3       1.000000         MASS LOADING        1
      34       1       3       4       1.000000         MASS LOADING        1
      35       1       3       5       1.000000         MASS LOADING        1
      36       1       3       6       1.000000         MASS LOADING        1
      37       1       3       7       1.000000         MASS LOADING        1
      38       1       3       8       1.000000         MASS LOADING        1
      39       1       3       9       1.000000         MASS LOADING        1
      40       1       3      10       1.000000         MASS LOADING        1
      41       1       3      11       1.100000         MASS LOADING        1
      42       1       3      12       1.200000         MASS LOADING        1
      43       1       3      13       1.300000         MASS LOADING        1
      44       1       3      14       1.400000         MASS LOADING        1
      45       1       3      15       1.500000         MASS LOADING        1
      46       1       4       1       1.000000         MASS LOADING        1
      47       1       4       2       1.000000         MASS LOADING        1
      48       1       4       3       1.000000         MASS LOADING        1
      49       1       4       4       1.000000         MASS LOADING        1
      50       1       4       5       1.000000         MASS LOADING        1
      51       1       4       6       1.000000         MASS LOADING        1
      52       1       4       7       1.000000         MASS LOADING        1
      53       1       4       8       1.000000         MASS LOADING        1
      54       1       4       9       1.000000         MASS LOADING        1
      55       1       4      10       1.000000         MASS LOADING        1
      56       1       4      11       1.100000         MASS LOADING        1
      57       1       4      12       1.200000         MASS LOADING        1
      58       1       4      13       1.300000         MASS LOADING        1
      59       1       4      14       1.400000         MASS LOADING        1
      60       1       4      15       1.500000         MASS LOADING        1
      61       1       5       1       1.000000         MASS LOADING        1
      62       1       5       2       1.000000         MASS LOADING        1
      63       1       5       3       1.000000         MASS LOADING        1
      64       1       5       4       1.000000         MASS LOADING        1
      65       1       5       5       1.000000         MASS LOADING        1
      66       1       5       6       1.000000         MASS LOADING        1
      67       1       5       7       1.000000         MASS LOADING        1
      68       1       5       8       1.000000         MASS LOADING        1
      69       1       5       9       1.000000         MASS LOADING        1
      70       1       5      10       1.000000         MASS LOADING        1
      71       1       5      11       1.100000         MASS LOADING        1
      72       1       5      12       1.200000         MASS LOADING        1
      73       1       5      13       1.300000         MASS LOADING        1
      74       1       5      14       1.400000         MASS LOADING        1
      75       1       5      15       1.500000         MASS LOADING        1
      76       1       6       1       1.000000         MASS LOADING        1
      77       1       6       2       1.000000         MASS LOADING        1
      78       1       6       3       1.000000         MASS LOADING        1
      79       1       6       4       1.000000         MASS LOADING        1
      80       1       6       5       1.000000         MASS LOADING        1
      81       1       6       6       1.000000         MASS LOADING        1
      82       1       6       7       1.000000         MASS LOADING        1
      83       1       6       8       1.000000         MASS LOADING        1
      84       1       6       9       1.000000         MASS LOADING        1
      85       1       6      10       1.000000         MASS LOADING        1
      86       1       6      11       1.100000         MASS LOADING        1
      87       1       6      12       1.200000         MASS LOADING        1
      88       1       6      13       1.300000         MASS LOADING        1
      89       1       6      14       1.400000         MASS LOADING        1
      90       1       6      15       1.500000         MASS LOADING        1
      91       1       7       1       1.000000         MASS LOADING        1
      92       1       7       2       1.000000         MASS LOADING        1
      93       1       7       3       1.000000         MASS LOADING        1
      94       1       7       4       1.000000         MASS LOADING        1
      95       1       7       5       1.000000         MASS LOADING        1
      96       1       7       6       1.000000         MASS LOADING        1
      97       1       7       7       1.000000         MASS LOADING        1
      98       1       7       8       1.000000         MASS LOADING        1
      99       1       7       9       1.000000         MASS LOADING        1
     100       1       7      10       1.000000         MASS LOADING        1
     101       1       7      11       1.100000         MASS LOADING        1
     102       1       7      12       1.200000         MASS LOADING        1
     103       1       7      13       1.300000         MASS LOADING        1
     104       1       7      14       1.400000         MASS LOADING        1
     105       1       7      15       1.500000         MASS LOADING        1
     106       1       8       1       1.000000         MASS LOADING        1
     107       1       8       2       1.000000         MASS LOADING        1
     108       1       8       3       1.000000         MASS LOADING        1
     109       1       8       4       1.000000         MASS LOADING        1
     110       1       8       5       1.000000         MASS LOADING        1
     111       1       8       6       1.000000         MASS LOADING        1
     112       1       8       7       1.000000         MASS LOADING        1
     113       1       8       8       1.000000         MASS LOADING        1
     114       1       8       9       1.000000         MASS LOADING        1
     115       1       8      10       1.000000         MASS LOADING        1
     116       1       8      11       1.100000         MASS LOADING        1
     117       1       8      12       1.200000         MASS LOADING        1
     118       1       8      13       1.300000         MASS LOADING        1
     119       1       8      14       1.400000         MASS LOADING        1
     120       1       8      15       1.500000         MASS LOADING        1
     121       1       9       1       1.000000         MASS LOADING        1
     122       1       9       2       1.000000         MASS LOADING        1
     123       1       9       3       1.000000         MASS LOADING        1
     124       1       9       4       1.000000         MASS LOADING        1
     125       1       9       8       1.000000         MASS LOADING        1
     126       1       9       9       1.000000         MASS LOADING        1
     127       1       9      10       1.000000         MASS LOADING        1
     128       1       9      11       1.100000         MASS LOADING        1
     129       1       9      12       1.200000         MASS LOADING        1
     130       1       9      13       1.300000         MASS LOADING        1
     131       1       9      14       1.400000         MASS LOADING        1
     132       1       9      15       1.500000         MASS LOADING        1
     133       1      10       1       1.000000         MASS LOADING        1
     134       1      10       2       1.000000         MASS LOADING        1
     135       1      10       3       1.000000         MASS LOADING        1
     136       1      10       4       1.000000         MASS LOADING        1
     137       1      10       9       1.000000         MASS LOADING        1
     138       1      10      10       1.000000         MASS LOADING        1
     139       1      10      11       1.100000         MASS LOADING        1
     140       1      10      12       1.200000         MASS LOADING        1
     141       1      10      13       1.300000         MASS LOADING        1
     142       1      10      14       1.400000         MASS LOADING        1
     143       1      10      15       1.500000         MASS LOADING        1
     144       1      11       1       1.000000         MASS LOADING        1
     145       1      11       2       1.000000         MASS LOADING        1
     146       1      11       3       1.000000         MASS LOADING        1
     147       1      11       4       1.000000         MASS LOADING        1
     148       1      11       9       1.000000         MASS LOADING        1
     149       1      11      10       1.000000         MASS LOADING        1
     150       1      11      11       1.100000         MASS LOADING        1
     151       1      11      12       1.200000         MASS LOADING        1
     152       1      11      13       1.300000         MASS LOADING        1
     153       1      11      14       1.400000         MASS LOADING        1
     154       1      11      15       1.500000         MASS LOADING        1
     155       1      12       1       1.000000         MASS LOADING        1
     156       1      12       2       1.000000         MASS LOADING        1
     157       1      12       3       1.000000         MASS LOADING        1
     158       1      12       4       1.000000         MASS LOADING        1
     159       1      12       9       1.000000         MASS LOADING        1
     160       1      12      10       1.000000         MASS LOADING        1
     161       1      12      11       1.100000         MASS LOADING        1
     162       1      12      12       1.200000         MASS LOADING        1
     163       1      12      13       1.300000         MASS LOADING        1
     164       1      12      14       1.400000         MASS LOADING        1
     165       1      12      15       1.500000         MASS LOADING        1
     166       1      13       1       1.000000         MASS LOADING        1
     167       1      13       2       1.000000         MASS LOADING        1
     168       1      13       3       1.000000         MASS LOADING        1
     169       1      13       4       1.000000         MASS LOADING        1
     170       1      13       9       1.000000         MASS LOADING        1
     171       1      13      10       1.000000         MASS LOADING        1
     172       1      13      11       1.100000         MASS LOADING        1
     173       1      13      12       1.200000         MASS LOADING        1
     174       1      13      13       1.300000         MASS LOADING        1
     175       1      13      14       1.400000         MASS LOADING        1
     176       1      13      15       1.500000         MASS LOADING        1
     177       1      14       1       1.000000         MASS LOADING        1
     178       1      14       2       1.000000         MASS LOADING        1
     179       1      14       3       1.000000         MASS LOADING        1
     180       1      14       4       1.000000         MASS LOADING        1
     181       1      14       9       1.000000         MASS LOADING        1
     182       1      14      10       1.000000         MASS LOADING        1
     183       1      14      11       1.100000         MASS LOADING        1
     184       1      14      12       1.200000         MASS LOADING        1
     185       1      14      13       1.300000         MASS LOADING        1
     186       1      14      14       1.400000         MASS LOADING        1
     187       1      14      15       1.500000         MASS LOADING        1
     188       1      15       1       1.000000         MASS LOADING        1
     189       1      15       2       1.000000         MASS LOADING        1
     190       1      15       3       1.000000         MASS LOADING        1
     191       1      15       4       1.000000         MASS LOADING        1
     192       1      15       9       1.000000         MASS LOADING        1
     193       1      15      10       1.000000         MASS LOADING        1
     194       1      15      11       1.100000         MASS LOADING        1
     195       1      15      12       1.200000         MASS LOADING        1
     196       1      15      13       1.300000         MASS LOADING        1
     197       1      15      14       1.400000         MASS LOADING        1
     198       1      15      15       1.500000         MASS LOADING        1
     199       1      16       1       1.000000         MASS LOADING        1
     200       1      16       2       1.000000         MASS LOADING        1
     201       1      16       3       1.000000         MASS LOADING        1
     202       1      16       4       1.000000         MASS LOADING        1
     203       1      16       9       1.000000         MASS LOADING        1
     204       1      16      10       1.000000         MASS LOADING        1
     205       1      16      11       1.100000         MASS LOADING        1
     206       1      16      12       1.200000         MASS LOADING        1
     207       1      16      13       1.300000         MASS LOADING        1
     208       1      16      14       1.400000         MASS LOADING        1
     209       1      16      15       1.500000         MASS LOADING        1
     210       1      17       1       1.000000         MASS LOADING        1
     211       1      17       2       1.000000         MASS LOADING        1
     212       1      17       3       1.000000         MASS LOADING        1
     213       1      17       4       1.000000         MASS LOADING        1
     214       1      17       9       1.000000         MASS LOADING        1
     215       1      17      10       1.000000         MASS LOADING        1
     216       1      17      11       1.100000         MASS LOADING        1
     217       1      17      12       1.200000         MASS LOADING        1
     218       1      17      13       1.300000         MASS LOADING        1
     219       1      17      14       1.400000         MASS LOADING        1
     220       1      17      15       1.500000         MASS LOADING        1
     221       1      18       1       1.000000         MASS LOADING        1
     222       1      18       2       1.000000         MASS LOADING        1
     223       1      18       3       1.000000         MASS LOADING        1
     224       1      18       4       1.000000         MASS LOADING        1
     225       1      18       9       1.000000         MASS LOADING        1
     226       1      18      10       1.000000         MASS LOADING        1
     227       1      18      11       1.100000         MASS LOADING        1
     228       1      18      12       1.200000         MASS LOADING        1
     229       1      18      13       1.300000         MASS LOADING        1
     230       1      18      14       1.400000         MASS LOADING        1
     231       1      18      15       1.500000         MASS LOADING        1
     232       1      19       1       1.000000         MASS LOADING        1
     233       1      19       2       1.000000         MASS LOADING        1
     234       1      19       3       1.000000         MASS LOADING        1
     235       1      19       4       1.000000         MASS LOADING        1
     236       1      19       9       1.000000         MASS LOADING        1
     237       1      19      10       1.000000         MASS LOADING        1
     238       1      19      11       1.100000         MASS LOADING        1
     239       1      19      12       1.200000         MASS LOADING        1
     240       1      19      13       1.300000         MASS LOADING        1
     241       1      19      14       1.400000         MASS LOADING        1
     242       1      19      15       1.500000         MASS LOADING        1
     243       1      20       1       1.000000         MASS LOADING        1
     244       1      20       2       1.000000         MASS LOADING        1
     245       1      20       3       1.000000         MASS LOADING        1
     246       1      20       4       1.000000         MASS LOADING        1
     247       1      20       9       1.000000         MASS LOADING        1
     248       1      20      10       1.000000         MASS LOADING        1
     249       1      20      11       1.100000         MASS LOADING        1
     250       1      20      12       1.200000         MASS LOADING        1
     251       1      20      13       1.300000         MASS LOADING        1
     252       1      20      14       1.400000         MASS LOADING        1
     253       1      20      15       1.500000         MASS LOADING        1
     254       1      21       1       1.000000         MASS LOADING        1
     255       1      21       2       1.000000         MASS LOADING        1
     256       1      21       3       1.000000         MASS LOADING        1
     257       1      21       4       1.000000         MASS LOADING        1
     258       1      21       9       1.000000         MASS LOADING        1
     259       1      21      10       1.000000         MASS LOADING        1
     260       1      21      11       1.100000         MASS LOADING        1
     261       1      21      12       1.200000         MASS LOADING        1
     262       1      21      13       1.300000         MASS LOADING        1
     263       1      21      14       1.400000         MASS LOADING        1
     264       1      21      15       1.500000         MASS LOADING        1
     265       1      22       1       1.000000         MASS LOADING        1
     266       1      22       2       1.000000         MASS LOADING        1
     267       1      22       3       1.000000         MASS LOADING        1
     268       1      22       4       1.000000         MASS LOADING        1
     269       1      22       7       1.000000         MASS LOADING        1
     270       1      22       8       1.000000         MASS LOADING        1
     271       1      22       9       1.000000         MASS LOADING        1
     272       1      22      10       1.000000         MASS LOADING        1
     273       1      22      11       1.100000         MASS LOADING        1
     274       1      22      12       1.200000         MASS LOADING        1
     275       1      22      13       1.300000         MASS LOADING        1
     276       1      22      14       1.400000         MASS LOADING        1
     277       1      22      15       1.500000         MASS LOADING        1
     278       1      23       1       1.000000         MASS LOADING        1
     279       1      23       2       1.000000         MASS LOADING        1
     280       1      23       3       1.000000         MASS LOADING        1
     281       1      23       4       1.000000         MASS LOADING        1
     282       1      23       5       1.000000         MASS LOADING        1
     283       1      23       7       1.000000         MASS LOADING        1
     284       1      23       8       1.000000         MASS LOADING        1
     285       1      23       9       1.000000         MASS LOADING        1
     286       1      23      10       1.000000         MASS LOADING        1
     287       1      23      11       1.100000         MASS LOADING        1
     288       1      23      12       1.200000         MASS LOADING        1
     289       1      23      13       1.300000         MASS LOADING        1
     290       1      23      14       1.400000         MASS LOADING        1
     291       1      23      15       1.500000         MASS LOADING        1
     292       1      24       1       1.000000         MASS LOADING        1
     293       1      24       2       1.000000         MASS LOADING        1
     294       1      24       3       1.000000         MASS LOADING        1
     295       1      24       4       1.000000         MASS LOADING        1
     296       1      24       5       1.000000         MASS LOADING        1
     297       1      24       6       1.000000         MASS LOADING        1
     298       1      24       7       1.000000         MASS LOADING        1
     299       1      24       8       1.000000         MASS LOADING        1
     300       1      24       9       1.000000         MASS LOADING        1
     301       1      24      10       1.000000         MASS LOADING        1
     302       1      24      11       1.100000         MASS LOADING        1
     303       1      24      12       1.200000         MASS LOADING        1
     304       1      24      13       1.300000         MASS LOADING        1
     305       1      24      14       1.400000         MASS LOADING        1
     306       1      24      15       1.500000         MASS LOADING        1
     307       1      25       1       1.000000         MASS LOADING        1
     308       1      25       2       1.000000         MASS LOADING        1
     309       1      25       3       1.000000         MASS LOADING        1
     310       1      25       4       1.000000         MASS LOADING        1
     311       1      25       5       1.000000         MASS LOADING        1
     312       1      25       6       1.000000         MASS LOADING        1
     313       1      25       7       1.000000         MASS LOADING        1
     314       1      25       8       1.000000         MASS LOADING        1
     315       1      25       9       1.000000         MASS LOADING        1
     316       1      25      10       1.000000         MASS LOADING        1
     317       1      25      11       1.100000         MASS LOADING        1
     318       1      25      12       1.200000         MASS LOADING        1
     319       1      25      13       1.300000         MASS LOADING        1
     320       1      25      14       1.400000         MASS LOADING        1
     321       1      25      15       1.500000         MASS LOADING        1
     322       1      26       1       1.000000         MASS LOADING        1
     323       1      26       2       1.000000         MASS LOADING        1
     324       1      26       3       1.000000         MASS LOADING        1
     325       1      26       4       1.000000         MASS LOADING        1
     326       1      26       5       1.000000         MASS LOADING        1
     327       1      26       6       1.000000         MASS LOADING        1
     328       1      26       7       1.000000         MASS LOADING        1
     329       1      26       8       1.000000         MASS LOADING        1
     330       1      26       9       1.000000         MASS LOADING        1
     331       1      26      10       1.000000         MASS LOADING        1
     332       1      26      11       1.100000         MASS LOADING        1
     333       1      26      12       1.200000         MASS LOADING        1
     334       1      26      13       1.300000         MASS LOADING        1
     335       1      26      14       1.400000         MASS LOADING        1
     336       1      26      15       1.500000         MASS LOADING        1
     337       1      27       1       1.000000         MASS LOADING        1
     338       1      27       2       1.000000         MASS LOADING        1
     339       1      27       3       1.000000         MASS LOADING        1
     340       1      27       4       1.000000         MASS LOADING        1
     341       1      27       5       1.000000         MASS LOADING        1
     342       1      27       6       1.000000         MASS LOADING        1
     343       1      27       7       1.000000         MASS LOADING        1
     344       1      27       8       1.000000         MASS LOADING        1
     345       1      27       9       1.000000         MASS LOADING        1
     346       1      27      10       1.000000         MASS LOADING        1
     347       1      27      11       1.100000         MASS LOADING        1
     348       1      27      12       1.200000         MASS LOADING        1
     349       1      27      13       1.300000         MASS LOADING        1
     350       1      27      14       1.400000         MASS LOADING        1
     351       1      27      15       1.500000         MASS LOADING        1
     352       1      28       1       1.000000         MASS LOADING        1
     353       1      28       2       1.000000         MASS LOADING        1
     354       1      28       3       1.000000         MASS LOADING        1
     355       1      28       4       1.000000         MASS LOADING        1
     356       1      28       5       1.000000         MASS LOADING        1
     357       1      28       6       1.000000         MASS LOADING        1
     358       1      28       7       1.000000         MASS LOADING        1
     359       1      28       8       1.000000         MASS LOADING        1
     360       1      28       9       1.000000         MASS LOADING        1
     361       1      28      10       1.000000         MASS LOADING        1
     362       1      28      11       1.100000         MASS LOADING        1
     363       1      28      12       1.200000         MASS LOADING        1
     364       1      28      13       1.300000         MASS LOADING        1
     365       1      28      14       1.400000         MASS LOADING        1
     366       1      28      15       1.500000         MASS LOADING        1
     367       1      29       1       1.000000         MASS LOADING        1
     368       1      29       2       1.000000         MASS LOADING        1
     369       1      29       3       1.000000         MASS LOADING        1
     370       1      29       4       1.000000         MASS LOADING        1
     371       1      29       5       1.000000         MASS LOADING        1
     372       1      29       6       1.000000         MASS LOADING        1
     373       1      29       7       1.000000         MASS LOADING        1
     374       1      29       8       1.000000         MASS LOADING        1
     375       1      29       9       1.000000         MASS LOADING        1
     376       1      29      10       1.000000         MASS LOADING        1
     377       1      29      11       1.100000         MASS LOADING        1
     378       1      29      12       1.200000         MASS LOADING        1
     379       1      29      13       1.300000         MASS LOADING        1
     380       1      29      14       1.400000         MASS LOADING        1
     381       1      29      15       1.500000         MASS LOADING        1
     382       1      30       1       1.000000         MASS LOADING        1
     383       1      30       2       1.000000         MASS LOADING        1
     384       1      30       3       1.000000         MASS LOADING        1
     385       1      30       4       1.000000         MASS LOADING        1
     386       1      30       5       1.000000         MASS LOADING        1
     387       1      30       6       1.000000         MASS LOADING        1
     388       1      30       7       1.000000         MASS LOADING        1
     389       1      30       8       1.000000         MASS LOADING        1
     390       1      30       9       1.000000         MASS LOADING        1
     391       1      30      10       1.000000         MASS LOADING        1
     392       1      30      11       1.100000         MASS LOADING        1
     393       1      30      12       1.200000         MASS LOADING        1
     394       1      30      13       1.300000         MASS LOADING        1
     395       1      30      14       1.400000         MASS LOADING        1
     396       1      30      15       1.500000         MASS LOADING        1
     397       1      31       1       1.000000         MASS LOADING        1
     398       1      31       2       1.000000         MASS LOADING        1
     399       1      31       3       1.000000         MASS LOADING        1
     400       1      31       4       1.000000         MASS LOADING        1
     401       1      31       5       1.000000         MASS LOADING        1
     402       1      31       6       1.000000         MASS LOADING        1
     403       1      31       7       1.000000         MASS LOADING        1
     404       1      31       8       1.000000         MASS LOADING        1
     405       1      31       9       1.000000         MASS LOADING        1
     406       1      31      10       1.000000         MASS LOADING        1
     407       1      31      11       1.100000         MASS LOADING        1
     408       1      31      12       1.200000         MASS LOADING        1
     409       1      31      13       1.300000         MASS LOADING        1
     410       1      31      14       1.400000         MASS LOADING        1
     411       1      31      15       1.500000         MASS LOADING        1
     412       1      32       1       1.000000         MASS LOADING        1
     413       1      32       2       1.000000         MASS LOADING        1
     414       1      32       3       1.000000         MASS LOADING        1
     415       1      32       4       1.000000         MASS LOADING        1
     416       1      32       5       1.000000         MASS LOADING        1
     417       1      32       6       1.000000         MASS LOADING        1
     418       1      32       7       1.000000         MASS LOADING        1
     419       1      32       8       1.000000         MASS LOADING        1
     420       1      32       9       1.000000         MASS LOADING        1
     421       1      32      10       1.000000         MASS LOADING        1
     422       1      32      11       1.100000         MASS LOADING        1
     423       1      32      12       1.200000         MASS LOADING        1
     424       1      32      13       1.300000         MASS LOADING        1
     425       1      32      14       1.400000         MASS LOADING        1
     426       1      32      15       1.500000         MASS LOADING        1
     427       1      33       2       1.000000         MASS LOADING        1
     428       1      33       3       1.000000         MASS LOADING        1
     429       1      33       4       1.000000         MASS LOADING        1
     430       1      33       5       1.000000         MASS LOADING        1
     431       1      33       6       1.000000         MASS LOADING        1
     432       1      33       7       1.000000         MASS LOADING        1
     433       1      33       8       1.000000         MASS LOADING        1
     434       1      33       9       1.000000         MASS LOADING        1
     435       1      33      10       1.000000         MASS LOADING        1
     436       1      33      11       1.100000         MASS LOADING        1
     437       1      33      12       1.200000         MASS LOADING        1
     438       1      33      13       1.300000         MASS LOADING        1
     439       1      33      14       1.400000         MASS LOADING        1
     440       1      33      15       1.500000         MASS LOADING        1
     441       1      34       3       1.000000         MASS LOADING        1
     442       1      34       4       1.000000         MASS LOADING        1
     443       1      34       5       1.000000         MASS LOADING        1
     444       1      34       6       1.000000         MASS LOADING        1
     445       1      34       7       1.000000         MASS LOADING        1
     446       1      34       8       1.000000         MASS LOADING        1
     447       1      34       9       1.000000         MASS LOADING        1
     448       1      34      10       1.000000         MASS LOADING        1
     449       1      34      11       1.100000         MASS LOADING        1
     450       1      34      12       1.200000         MASS LOADING        1
     451       1      34      13       1.300000         MASS LOADING        1
     452       1      34      14       1.400000         MASS LOADING        1
     453       1      34      15       1.500000         MASS LOADING        1
     454       1      35       4       1.000000         MASS LOADING        1
     455       1      35       5       1.000000         MASS LOADING        1
     456       1      35       6       1.000000         MASS LOADING        1
     457       1      35       7       1.000000         MASS LOADING        1
     458       1      35       8       1.000000         MASS LOADING        1
     459       1      35       9       1.000000         MASS LOADING        1
     460       1      35      10       1.000000         MASS LOADING        1
     461       1      35      11       1.100000         MASS LOADING        1
     462       1      35      12       1.200000         MASS LOADING        1
     463       1      35      13       1.300000         MASS LOADING        1
     464       1      35      14       1.400000         MASS LOADING        1
     465       1      35      15       1.500000         MASS LOADING        1
     466       1      36       5       1.000000         MASS LOADING        1
     467       1      36       6       1.000000         MASS LOADING        1
     468       1      36       7       1.000000         MASS LOADING        1
     469       1      36       8       1.000000         MASS LOADING        1
     470       1      36       9       1.000000         MASS LOADING        1
     471       1      36      10       1.000000         MASS LOADING        1
     472       1      36      11       1.100000         MASS LOADING        1
     473       1      36      12       1.200000         MASS LOADING        1
     474       1      36      13       1.300000         MASS LOADING        1
     475       1      36      14       1.400000         MASS LOADING        1
     476       1      36      15       1.500000         MASS LOADING        1
     477       1      37       5       1.000000         MASS LOADING        1
     478       1      37       6       1.000000         MASS LOADING        1
     479       1      37       7       1.000000         MASS LOADING        1
     480       1      37       8       1.000000         MASS LOADING        1
     481       1      37       9       1.000000         MASS LOADING        1
     482       1      37      10       1.000000         MASS LOADING        1
     483       1      37      11       1.100000         MASS LOADING        1
     484       1      37      12       1.200000         MASS LOADING        1
     485       1      37      13       1.300000         MASS LOADING        1
     486       1      37      14       1.400000         MASS LOADING        1
     487       1      37      15       1.500000         MASS LOADING        1
     488       1      38       6       1.000000         MASS LOADING        1
     489       1      38       7       1.000000         MASS LOADING        1
     490       1      38       8       1.000000         MASS LOADING        1
     491       1      38       9       1.000000         MASS LOADING        1
     492       1      38      10       1.000000         MASS LOADING        1
     493       1      38      11       1.100000         MASS LOADING        1
     494       1      38      12       1.200000         MASS LOADING        1
     495       1      38      13       1.300000         MASS LOADING        1
     496       1      38      14       1.400000         MASS LOADING        1
     497       1      38      15       1.500000         MASS LOADING        1
     498       1      39       6       1.000000         MASS LOADING        1
     499       1      39       7       1.000000         MASS LOADING        1
     500       1      39       8       1.000000         MASS LOADING        1
     501       1      39       9       1.000000         MASS LOADING        1
     502       1      39      10       1.000000         MASS LOADING        1
     503       1      39      11       1.100000         MASS LOADING        1
     504       1      39      12       1.200000         MASS LOADING        1
     505       1      39      13       1.300000         MASS LOADING        1
     506       1      39      14       1.400000         MASS LOADING        1
     507       1      39      15       1.500000         MASS LOADING        1
     508       1      40       6       1.000000         MASS LOADING        1
     509       1      40       7       1.000000         MASS LOADING        1
     510       1      40       8       1.000000         MASS LOADING        1
     511       1      40       9       1.000000         MASS LOADING        1
     512       1      40      10       1.000000         MASS LOADING        1
     513       1      40      11       1.100000         MASS LOADING        1
     514       1      40      12       1.200000         MASS LOADING        1
     515       1      40      13       1.300000         MASS LOADING        1
     516       1      40      14       1.400000         MASS LOADING        1
     517       1      40      15       1.500000         MASS LOADING        1


 STREAM BOUNDARY CONDITIONS
 --------------------------


 NO. OF STREAM SINKS/SOURCES OF SPECIFIED CONCONCENTRATIONS =    0 IN STRESS PERIOD  1


                                          ================================================
                                                         TIME STEP NO.  001
                                          ================================================

 FROM TIME =   0.0000     TO    3650.0    


                    "THKSAT          " FLOW TERMS FOR TIME STEP  1, STRESS PERIOD  1 READ UNFORMATTED ON UNIT 10
                    --------------------------------------------------------------------------------------------

                    "QXX             " FLOW TERMS FOR TIME STEP  1, STRESS PERIOD  1 READ UNFORMATTED ON UNIT 10
                    --------------------------------------------------------------------------------------------

                    "QYY             " FLOW TERMS FOR TIME STEP  1, STRESS PERIOD  1 READ UNFORMATTED ON UNIT 10
                    --------------------------------------------------------------------------------------------

 MAXIMUM STEPSIZE DURING WHICH ANY PARTICLE CANNOT MOVE MORE THAN ONE CELL
 =  61.20    (WHEN MIN. R.F.=1)  AT K=   1, I=  38, J=   6

 MAXIMUM STEPSIZE WHICH MEETS STABILITY CRITERION OF THE ADVECTION TERM
 (FOR PURE FINITE-DIFFERENCE OPTION, MIXELM=0) 
 =  35.99    (WHEN MIN. R.F.=1)  AT K=   1, I=   9, J=  16

                    "CNH             " FLOW TERMS FOR TIME STEP  1, STRESS PERIOD  1 READ UNFORMATTED ON UNIT 10
                    --------------------------------------------------------------------------------------------

                    "WEL             " FLOW TERMS FOR TIME STEP  1, STRESS PERIOD  1 READ UNFORMATTED ON UNIT 10
                    --------------------------------------------------------------------------------------------

                    "RCH             " FLOW TERMS FOR TIME STEP  1, STRESS PERIOD  1 READ UNFORMATTED ON UNIT 10
                    --------------------------------------------------------------------------------------------

                    "SFR FLOWS TR    " FLOW TERMS FOR TIME STEP  1, STRESS PERIOD  1 READ UNFORMATTED ON UNIT 10
                    --------------------------------------------------------------------------------------------


 TOTAL NUMBER OF POINT SOURCES/SINKS PRESENT IN THE FLOW MODEL =   533

 MAXIMUM STEPSIZE WHICH MEETS STABILITY CRITERION OF THE SINK & SOURCE TERM
 =  799.6    (WHEN MIN. R.F.=1)  AT K=   1, I=   4, J=   3


     1 CALLS TO GCG PACKAGE FOR TRANSPORT TIME STEP     1 IN FLOW TIME STEP     1 STRESS PERIOD     1
      2 TOTAL ITERATIONS
     1 CALLS TO GCG PACKAGE FOR TRANSPORT TIME STEP     2 IN FLOW TIME STEP     1 STRESS PERIOD     1
      2 TOTAL ITERATIONS
     1 CALLS TO GCG PACKAGE FOR TRANSPORT TIME STEP     3 IN FLOW TIME STEP     1 STRESS PERIOD     1
      2 TOTAL ITERATIONS
     1 CALLS TO GCG PACKAGE FOR TRANSPORT TIME STEP     4 IN FLOW TIME STEP     1 STRESS PERIOD     1
      2 TOTAL ITERATIONS
     1 CALLS TO GCG PACKAGE FOR TRANSPORT TIME STEP     5 IN FLOW TIME STEP     1 STRESS PERIOD     1
      2 TOTAL ITERATIONS
     1 CALLS TO GCG PACKAGE FOR TRANSPORT TIME STEP     6 IN FLOW TIME STEP     1 STRESS PERIOD     1
      2 TOTAL ITERATIONS
     1 CALLS TO GCG PACKAGE FOR TRANSPORT TIME STEP     7 IN FLOW TIME STEP     1 STRESS PERIOD     1
      2 TOTAL ITERATIONS
     1 CALLS TO GCG PACKAGE FOR TRANSPORT TIME STEP     8 IN FLOW TIME STEP     1 STRESS PERIOD     1
      2 TOTAL ITERATIONS
     1 CALLS TO GCG PACKAGE FOR TRANSPORT TIME STEP     9 IN FLOW TIME STEP     1 STRESS PERIOD     1
      2 TOTAL ITERATIONS
     1 CALLS TO GCG PACKAGE FOR TRANSPORT TIME STEP    10 IN FLOW TIME STEP     1 STRESS PERIOD     1
      2 TOTAL ITERATIONS
     1 CALLS TO GCG PACKAGE FOR TRANSPORT TIME STEP    11 IN FLOW TIME STEP     1 STRESS PERIOD     1
      2 TOTAL ITERATIONS
     1 CALLS TO GCG PACKAGE FOR TRANSPORT TIME STEP    12 IN FLOW TIME STEP     1 STRESS PERIOD     1
      2 TOTAL ITERATIONS
     1 CALLS TO GCG PACKAGE FOR TRANSPORT TIME STEP    13 IN FLOW TIME STEP     1 STRESS PERIOD     1
      2 TOTAL ITERATIONS
     1 CALLS TO GCG PACKAGE FOR TRANSPORT TIME STEP    14 IN FLOW TIME STEP     1 STRESS PERIOD     1
      2 TOTAL ITERATIONS
     1 CALLS TO GCG PACKAGE FOR TRANSPORT TIME STEP    15 IN FLOW TIME STEP     1 STRESS PERIOD     1
      2 TOTAL ITERATIONS
     1 CALLS TO GCG PACKAGE FOR TRANSPORT TIME STEP    16 IN FLOW TIME STEP     1 STRESS PERIOD     1
      2 TOTAL ITERATIONS
     1 CALLS TO GCG PACKAGE FOR TRANSPORT TIME STEP    17 IN FLOW TIME STEP     1 STRESS PERIOD     1
      2 TOTAL ITERATIONS
     1 CALLS TO GCG PACKAGE FOR TRANSPORT TIME STEP    18 IN FLOW TIME STEP     1 STRESS PERIOD     1
      2 TOTAL ITERATIONS
     1 CALLS TO GCG PACKAGE FOR TRANSPORT TIME STEP    19 IN FLOW TIME STEP     1 STRESS PERIOD     1
      2 TOTAL ITERATIONS
     1 CALLS TO GCG PACKAGE FOR TRANSPORT TIME STEP    20 IN FLOW TIME STEP     1 STRESS PERIOD     1
      2 TOTAL ITERATIONS
     1 CALLS TO GCG PACKAGE FOR TRANSPORT TIME STEP    21 IN FLOW TIME STEP     1 STRESS PERIOD     1
      2 TOTAL ITERATIONS
     1 CALLS TO GCG PACKAGE FOR TRANSPORT TIME STEP    22 IN FLOW TIME STEP     1 STRESS PERIOD     1
      2 TOTAL ITERATIONS
     1 CALLS TO GCG PACKAGE FOR TRANSPORT TIME STEP    23 IN FLOW TIME STEP     1 STRESS PERIOD     1
      2 TOTAL ITERATIONS
     1 CALLS TO GCG PACKAGE FOR TRANSPORT TIME STEP    24 IN FLOW TIME STEP     1 STRESS PERIOD     1
      2 TOTAL ITERATIONS
     1 CALLS TO GCG PACKAGE FOR TRANSPORT TIME STEP    25 IN FLOW TIME STEP     1 STRESS PERIOD     1
      2 TOTAL ITERATIONS
     1 CALLS TO GCG PACKAGE FOR TRANSPORT TIME STEP    26 IN FLOW TIME STEP     1 STRESS PERIOD     1
      2 TOTAL ITERATIONS
     1 CALLS TO GCG PACKAGE FOR TRANSPORT TIME STEP    27 IN FLOW TIME STEP     1 STRESS PERIOD     1
      2 TOTAL ITERATIONS
     1 CALLS TO GCG PACKAGE FOR TRANSPORT TIME STEP    28 IN FLOW TIME STEP     1 STRESS PERIOD     1
      2 TOTAL ITERATIONS
     1 CALLS TO GCG PACKAGE FOR TRANSPORT TIME STEP    29 IN FLOW TIME STEP     1 STRESS PERIOD     1
      2 TOTAL ITERATIONS
     1 CALLS TO GCG PACKAGE FOR TRANSPORT TIME STEP    30 IN FLOW TIME STEP     1 STRESS PERIOD     1
      2 TOTAL ITERATIONS
     1 CALLS TO GCG PACKAGE FOR TRANSPORT TIME STEP    31 IN FLOW TIME STEP     1 STRESS PERIOD     1
      2 TOTAL ITERATIONS
     1 CALLS TO GCG PACKAGE FOR TRANSPORT TIME STEP    32 IN FLOW TIME STEP     1 STRESS PERIOD     1
      2 TOTAL ITERATIONS
     1 CALLS TO GCG PACKAGE FOR TRANSPORT TIME STEP    33 IN FLOW TIME STEP     1 STRESS PERIOD     1
      2 TOTAL ITERATIONS
     1 CALLS TO GCG PACKAGE FOR TRANSPORT TIME STEP    34 IN FLOW TIME STEP     1 STRESS PERIOD     1
      2 TOTAL ITERATIONS
     1 CALLS TO GCG PACKAGE FOR TRANSPORT TIME STEP    35 IN FLOW TIME STEP     1 STRESS PERIOD     1
      2 TOTAL ITERATIONS
     1 CALLS TO GCG PACKAGE FOR TRANSPORT TIME STEP    36 IN FLOW TIME STEP     1 STRESS PERIOD     1
      2 TOTAL ITERATIONS
     1 CALLS TO GCG PACKAGE FOR TRANSPORT TIME STEP    37 IN FLOW TIME STEP     1 STRESS PERIOD     1
      2 TOTAL ITERATIONS
     1 CALLS TO GCG PACKAGE FOR TRANSPORT TIME STEP    38 IN FLOW TIME STEP     1 STRESS PERIOD     1
      2 TOTAL ITERATIONS
     1 CALLS TO GCG PACKAGE FOR TRANSPORT TIME STEP    39 IN FLOW TIME STEP     1 STRESS PERIOD     1
      2 TOTAL ITERATIONS
     1 CALLS TO GCG PACKAGE FOR TRANSPORT TIME STEP    40 IN FLOW TIME STEP     1 STRESS PERIOD     1
      2 TOTAL ITERATIONS
     1 CALLS TO GCG PACKAGE FOR TRANSPORT TIME STEP    41 IN FLOW TIME STEP     1 STRESS PERIOD     1
      2 TOTAL ITERATIONS
     1 CALLS TO GCG PACKAGE FOR TRANSPORT TIME STEP    42 IN FLOW TIME STEP     1 STRESS PERIOD     1
      2 TOTAL ITERATIONS
     1 CALLS TO GCG PACKAGE FOR TRANSPORT TIME STEP    43 IN FLOW TIME STEP     1 STRESS PERIOD     1
      2 TOTAL ITERATIONS
     1 CALLS TO GCG PACKAGE FOR TRANSPORT TIME STEP    44 IN FLOW TIME STEP     1 STRESS PERIOD     1
      2 TOTAL ITERATIONS
     1 CALLS TO GCG PACKAGE FOR TRANSPORT TIME STEP    45 IN FLOW TIME STEP     1 STRESS PERIOD     1
      2 TOTAL ITERATIONS
     1 CALLS TO GCG PACKAGE FOR TRANSPORT TIME STEP    46 IN FLOW TIME STEP     1 STRESS PERIOD     1
      2 TOTAL ITERATIONS
     1 CALLS TO GCG PACKAGE FOR TRANSPORT TIME STEP    47 IN FLOW TIME STEP     1 STRESS PERIOD     1
      2 TOTAL ITERATIONS
     1 CALLS TO GCG PACKAGE FOR TRANSPORT TIME STEP    48 IN FLOW TIME STEP     1 STRESS PERIOD     1
      2 TOTAL ITERATIONS
     1 CALLS TO GCG PACKAGE FOR TRANSPORT TIME STEP    49 IN FLOW TIME STEP     1 STRESS PERIOD     1
      2 TOTAL ITERATIONS
     1 CALLS TO GCG PACKAGE FOR TRANSPORT TIME STEP    50 IN FLOW TIME STEP     1 STRESS PERIOD     1
      2 TOTAL ITERATIONS
     1 CALLS TO GCG PACKAGE FOR TRANSPORT TIME STEP    51 IN FLOW TIME STEP     1 STRESS PERIOD     1
      2 TOTAL ITERATIONS
     1 CALLS TO GCG PACKAGE FOR TRANSPORT TIME STEP    52 IN FLOW TIME STEP     1 STRESS PERIOD     1
      2 TOTAL ITERATIONS
     1 CALLS TO GCG PACKAGE FOR TRANSPORT TIME STEP    53 IN FLOW TIME STEP     1 STRESS PERIOD     1
      2 TOTAL ITERATIONS
     1 CALLS TO GCG PACKAGE FOR TRANSPORT TIME STEP    54 IN FLOW TIME STEP     1 STRESS PERIOD     1
      2 TOTAL ITERATIONS
     1 CALLS TO GCG PACKAGE FOR TRANSPORT TIME STEP    55 IN FLOW TIME STEP     1 STRESS PERIOD     1
      2 TOTAL ITERATIONS
     1 CALLS TO GCG PACKAGE FOR TRANSPORT TIME STEP    56 IN FLOW TIME STEP     1 STRESS PERIOD     1
      2 TOTAL ITERATIONS
     1 CALLS TO GCG PACKAGE FOR TRANSPORT TIME STEP    57 IN FLOW TIME STEP     1 STRESS PERIOD     1
      2 TOTAL ITERATIONS
     1 CALLS TO GCG PACKAGE FOR TRANSPORT TIME STEP    58 IN FLOW TIME STEP     1 STRESS PERIOD     1
      2 TOTAL ITERATIONS
     1 CALLS TO GCG PACKAGE FOR TRANSPORT TIME STEP    59 IN FLOW TIME STEP     1 STRESS PERIOD     1
      2 TOTAL ITERATIONS
     1 CALLS TO GCG PACKAGE FOR TRANSPORT TIME STEP    60 IN FLOW TIME STEP     1 STRESS PERIOD     1
      2 TOTAL ITERATIONS
     1 CALLS TO GCG PACKAGE FOR TRANSPORT TIME STEP    61 IN FLOW TIME STEP     1 STRESS PERIOD     1
      2 TOTAL ITERATIONS
     1 CALLS TO GCG PACKAGE FOR TRANSPORT TIME STEP    62 IN FLOW TIME STEP     1 STRESS PERIOD     1
      2 TOTAL ITERATIONS
     1 CALLS TO GCG PACKAGE FOR TRANSPORT TIME STEP    63 IN FLOW TIME STEP     1 STRESS PERIOD     1
      2 TOTAL ITERATIONS
     1 CALLS TO GCG PACKAGE FOR TRANSPORT TIME STEP    64 IN FLOW TIME STEP     1 STRESS PERIOD     1
      2 TOTAL ITERATIONS
     1 CALLS TO GCG PACKAGE FOR TRANSPORT TIME STEP    65 IN FLOW TIME STEP     1 STRESS PERIOD     1
      2 TOTAL ITERATIONS
     1 CALLS TO GCG PACKAGE FOR TRANSPORT TIME STEP    66 IN FLOW TIME STEP     1 STRESS PERIOD     1
      2 TOTAL ITERATIONS
     1 CALLS TO GCG PACKAGE FOR TRANSPORT TIME STEP    67 IN FLOW TIME STEP     1 STRESS PERIOD     1
      2 TOTAL ITERATIONS
     1 CALLS TO GCG PACKAGE FOR TRANSPORT TIME STEP    68 IN FLOW TIME STEP     1 STRESS PERIOD     1
      2 TOTAL ITERATIONS
     1 CALLS TO GCG PACKAGE FOR TRANSPORT TIME STEP    69 IN FLOW TIME STEP     1 STRESS PERIOD     1
      2 TOTAL ITERATIONS
     1 CALLS TO GCG PACKAGE FOR TRANSPORT TIME STEP    70 IN FLOW TIME STEP     1 STRESS PERIOD     1
      2 TOTAL ITERATIONS
     1 CALLS TO GCG PACKAGE FOR TRANSPORT TIME STEP    71 IN FLOW TIME STEP     1 STRESS PERIOD     1
      2 TOTAL ITERATIONS
     1 CALLS TO GCG PACKAGE FOR TRANSPORT TIME STEP    72 IN FLOW TIME STEP     1 STRESS PERIOD     1
      2 TOTAL ITERATIONS
     1 CALLS TO GCG PACKAGE FOR TRANSPORT TIME STEP    73 IN FLOW TIME STEP     1 STRESS PERIOD     1
      2 TOTAL ITERATIONS
     1 CALLS TO GCG PACKAGE FOR TRANSPORT TIME STEP    74 IN FLOW TIME STEP     1 STRESS PERIOD     1
      2 TOTAL ITERATIONS
     1 CALLS TO GCG PACKAGE FOR TRANSPORT TIME STEP    75 IN FLOW TIME STEP     1 STRESS PERIOD     1
      2 TOTAL ITERATIONS
     1 CALLS TO GCG PACKAGE FOR TRANSPORT TIME STEP    76 IN FLOW TIME STEP     1 STRESS PERIOD     1
      2 TOTAL ITERATIONS
     1 CALLS TO GCG PACKAGE FOR TRANSPORT TIME STEP    77 IN FLOW TIME STEP     1 STRESS PERIOD     1
      2 TOTAL ITERATIONS
     1 CALLS TO GCG PACKAGE FOR TRANSPORT TIME STEP    78 IN FLOW TIME STEP     1 STRESS PERIOD     1
      2 TOTAL ITERATIONS
     1 CALLS TO GCG PACKAGE FOR TRANSPORT TIME STEP    79 IN FLOW TIME STEP     1 STRESS PERIOD     1
      2 TOTAL ITERATIONS
     1 CALLS TO GCG PACKAGE FOR TRANSPORT TIME STEP    80 IN FLOW TIME STEP     1 STRESS PERIOD     1
      2 TOTAL ITERATIONS
     1 CALLS TO GCG PACKAGE FOR TRANSPORT TIME STEP    81 IN FLOW TIME STEP     1 STRESS PERIOD     1
      2 TOTAL ITERATIONS
     1 CALLS TO GCG PACKAGE FOR TRANSPORT TIME STEP    82 IN FLOW TIME STEP     1 STRESS PERIOD     1
      2 TOTAL ITERATIONS
     1 CALLS TO GCG PACKAGE FOR TRANSPORT TIME STEP    83 IN FLOW TIME STEP     1 STRESS PERIOD     1
      2 TOTAL ITERATIONS
     1 CALLS TO GCG PACKAGE FOR TRANSPORT TIME STEP    84 IN FLOW TIME STEP     1 STRESS PERIOD     1
      2 TOTAL ITERATIONS
     1 CALLS TO GCG PACKAGE FOR TRANSPORT TIME STEP    85 IN FLOW TIME STEP     1 STRESS PERIOD     1
      2 TOTAL ITERATIONS
     1 CALLS TO GCG PACKAGE FOR TRANSPORT TIME STEP    86 IN FLOW TIME STEP     1 STRESS PERIOD     1
      2 TOTAL ITERATIONS
     1 CALLS TO GCG PACKAGE FOR TRANSPORT TIME STEP    87 IN FLOW TIME STEP     1 STRESS PERIOD     1
      2 TOTAL ITERATIONS
     1 CALLS TO GCG PACKAGE FOR TRANSPORT TIME STEP    88 IN FLOW TIME STEP     1 STRESS PERIOD     1
      2 TOTAL ITERATIONS
     1 CALLS TO GCG PACKAGE FOR TRANSPORT TIME STEP    89 IN FLOW TIME STEP     1 STRESS PERIOD     1
      2 TOTAL ITERATIONS
     1 CALLS TO GCG PACKAGE FOR TRANSPORT TIME STEP    90 IN FLOW TIME STEP     1 STRESS PERIOD     1
      2 TOTAL ITERATIONS
     1 CALLS TO GCG PACKAGE FOR TRANSPORT TIME STEP    91 IN FLOW TIME STEP     1 STRESS PERIOD     1
      2 TOTAL ITERATIONS
     1 CALLS TO GCG PACKAGE FOR TRANSPORT TIME STEP    92 IN FLOW TIME STEP     1 STRESS PERIOD     1
      2 TOTAL ITERATIONS
     1 CALLS TO GCG PACKAGE FOR TRANSPORT TIME STEP    93 IN FLOW TIME STEP     1 STRESS PERIOD     1
      2 TOTAL ITERATIONS
     1 CALLS TO GCG PACKAGE FOR TRANSPORT TIME STEP    94 IN FLOW TIME STEP     1 STRESS PERIOD     1
      2 TOTAL ITERATIONS
     1 CALLS TO GCG PACKAGE FOR TRANSPORT TIME STEP    95 IN FLOW TIME STEP     1 STRESS PERIOD     1
      2 TOTAL ITERATIONS
     1 CALLS TO GCG PACKAGE FOR TRANSPORT TIME STEP    96 IN FLOW TIME STEP     1 STRESS PERIOD     1
      2 TOTAL ITERATIONS
     1 CALLS TO GCG PACKAGE FOR TRANSPORT TIME STEP    97 IN FLOW TIME STEP     1 STRESS PERIOD     1
      2 TOTAL ITERATIONS
     1 CALLS TO GCG PACKAGE FOR TRANSPORT TIME STEP    98 IN FLOW TIME STEP     1 STRESS PERIOD     1
      2 TOTAL ITERATIONS
     1 CALLS TO GCG PACKAGE FOR TRANSPORT TIME STEP    99 IN FLOW TIME STEP     1 STRESS PERIOD     1
      2 TOTAL ITERATIONS
     1 CALLS TO GCG PACKAGE FOR TRANSPORT TIME STEP   100 IN FLOW TIME STEP     1 STRESS PERIOD     1
      2 TOTAL ITERATIONS
     1 CALLS TO GCG PACKAGE FOR TRANSPORT TIME STEP   101 IN FLOW TIME STEP     1 STRESS PERIOD     1
      2 TOTAL ITERATIONS
     1 CALLS TO GCG PACKAGE FOR TRANSPORT TIME STEP   102 IN FLOW TIME STEP     1 STRESS PERIOD     1
      2 TOTAL ITERATIONS
     1 CALLS TO GCG PACKAGE FOR TRANSPORT TIME STEP   103 IN FLOW TIME STEP     1 STRESS PERIOD     1
      2 TOTAL ITERATIONS
     1 CALLS TO GCG PACKAGE FOR TRANSPORT TIME STEP   104 IN FLOW TIME STEP     1 STRESS PERIOD     1
      2 TOTAL ITERATIONS
     1 CALLS TO GCG PACKAGE FOR TRANSPORT TIME STEP   105 IN FLOW TIME STEP     1 STRESS PERIOD     1
      2 TOTAL ITERATIONS
     1 CALLS TO GCG PACKAGE FOR TRANSPORT TIME STEP   106 IN FLOW TIME STEP     1 STRESS PERIOD     1
      2 TOTAL ITERATIONS
     1 CALLS TO GCG PACKAGE FOR TRANSPORT TIME STEP   107 IN FLOW TIME STEP     1 STRESS PERIOD     1
      2 TOTAL ITERATIONS
     1 CALLS TO GCG PACKAGE FOR TRANSPORT TIME STEP   108 IN FLOW TIME STEP     1 STRESS PERIOD     1
      2 TOTAL ITERATIONS
     1 CALLS TO GCG PACKAGE FOR TRANSPORT TIME STEP   109 IN FLOW TIME STEP     1 STRESS PERIOD     1
      2 TOTAL ITERATIONS
     1 CALLS TO GCG PACKAGE FOR TRANSPORT TIME STEP   110 IN FLOW TIME STEP     1 STRESS PERIOD     1
      2 TOTAL ITERATIONS
     1 CALLS TO GCG PACKAGE FOR TRANSPORT TIME STEP   111 IN FLOW TIME STEP     1 STRESS PERIOD     1
      2 TOTAL ITERATIONS
     1 CALLS TO GCG PACKAGE FOR TRANSPORT TIME STEP   112 IN FLOW TIME STEP     1 STRESS PERIOD     1
      2 TOTAL ITERATIONS
     1 CALLS TO GCG PACKAGE FOR TRANSPORT TIME STEP   113 IN FLOW TIME STEP     1 STRESS PERIOD     1
      2 TOTAL ITERATIONS
     1 CALLS TO GCG PACKAGE FOR TRANSPORT TIME STEP   114 IN FLOW TIME STEP     1 STRESS PERIOD     1
      2 TOTAL ITERATIONS
     1 CALLS TO GCG PACKAGE FOR TRANSPORT TIME STEP   115 IN FLOW TIME STEP     1 STRESS PERIOD     1
      2 TOTAL ITERATIONS
     1 CALLS TO GCG PACKAGE FOR TRANSPORT TIME STEP   116 IN FLOW TIME STEP     1 STRESS PERIOD     1
      2 TOTAL ITERATIONS
     1 CALLS TO GCG PACKAGE FOR TRANSPORT TIME STEP   117 IN FLOW TIME STEP     1 STRESS PERIOD     1
      2 TOTAL ITERATIONS
     1 CALLS TO GCG PACKAGE FOR TRANSPORT TIME STEP   118 IN FLOW TIME STEP     1 STRESS PERIOD     1
      2 TOTAL ITERATIONS
     1 CALLS TO GCG PACKAGE FOR TRANSPORT TIME STEP   119 IN FLOW TIME STEP     1 STRESS PERIOD     1
      2 TOTAL ITERATIONS
     1 CALLS TO GCG PACKAGE FOR TRANSPORT TIME STEP   120 IN FLOW TIME STEP     1 STRESS PERIOD     1
      2 TOTAL ITERATIONS
     1 CALLS TO GCG PACKAGE FOR TRANSPORT TIME STEP   121 IN FLOW TIME STEP     1 STRESS PERIOD     1
      2 TOTAL ITERATIONS
     1 CALLS TO GCG PACKAGE FOR TRANSPORT TIME STEP   122 IN FLOW TIME STEP     1 STRESS PERIOD     1
      2 TOTAL ITERATIONS
     1 CALLS TO GCG PACKAGE FOR TRANSPORT TIME STEP   123 IN FLOW TIME STEP     1 STRESS PERIOD     1
      2 TOTAL ITERATIONS
     1 CALLS TO GCG PACKAGE FOR TRANSPORT TIME STEP   124 IN FLOW TIME STEP     1 STRESS PERIOD     1
      2 TOTAL ITERATIONS
     1 CALLS TO GCG PACKAGE FOR TRANSPORT TIME STEP   125 IN FLOW TIME STEP     1 STRESS PERIOD     1
      2 TOTAL ITERATIONS
     1 CALLS TO GCG PACKAGE FOR TRANSPORT TIME STEP   126 IN FLOW TIME STEP     1 STRESS PERIOD     1
      2 TOTAL ITERATIONS
     1 CALLS TO GCG PACKAGE FOR TRANSPORT TIME STEP   127 IN FLOW TIME STEP     1 STRESS PERIOD     1
      2 TOTAL ITERATIONS
     1 CALLS TO GCG PACKAGE FOR TRANSPORT TIME STEP   128 IN FLOW TIME STEP     1 STRESS PERIOD     1
      2 TOTAL ITERATIONS
     1 CALLS TO GCG PACKAGE FOR TRANSPORT TIME STEP   129 IN FLOW TIME STEP     1 STRESS PERIOD     1
      2 TOTAL ITERATIONS
     1 CALLS TO GCG PACKAGE FOR TRANSPORT TIME STEP   130 IN FLOW TIME STEP     1 STRESS PERIOD     1
      2 TOTAL ITERATIONS
     1 CALLS TO GCG PACKAGE FOR TRANSPORT TIME STEP   131 IN FLOW TIME STEP     1 STRESS PERIOD     1
      2 TOTAL ITERATIONS
     1 CALLS TO GCG PACKAGE FOR TRANSPORT TIME STEP   132 IN FLOW TIME STEP     1 STRESS PERIOD     1
      2 TOTAL ITERATIONS
     1 CALLS TO GCG PACKAGE FOR TRANSPORT TIME STEP   133 IN FLOW TIME STEP     1 STRESS PERIOD     1
      2 TOTAL ITERATIONS
     1 CALLS TO GCG PACKAGE FOR TRANSPORT TIME STEP   134 IN FLOW TIME STEP     1 STRESS PERIOD     1
      2 TOTAL ITERATIONS
     1 CALLS TO GCG PACKAGE FOR TRANSPORT TIME STEP   135 IN FLOW TIME STEP     1 STRESS PERIOD     1
      2 TOTAL ITERATIONS
     1 CALLS TO GCG PACKAGE FOR TRANSPORT TIME STEP   136 IN FLOW TIME STEP     1 STRESS PERIOD     1
      2 TOTAL ITERATIONS
  MAXIMUM CONCENTRATION CHANGES FOR EACH ITERATION:
  MAX. CHANGE LAYER,ROW,COL MAX. CHANGE LAYER,ROW,COL MAX. CHANGE LAYER,ROW,COL MAX. CHANGE LAYER,ROW,COL MAX. CHANGE LAYER,ROW,COL
 ------------------------------------------------------------------------------------------------------------------------------------
   0.1099     (  1, 34, 12)   0.000     (  1,  1,  1)


                     STREAM MASS BUDGETS AT END OF TRANSPORT STEP  136, TIME STEP    1, STRESS PERIOD    1 FOR COMPONENT   1
                     -------------------------------------------------------------------------------------------------------

                                         CUMULATIVE MASS [M]                                     MASS FOR THIS TIME STEP [M]
                                         -------------------                                    --------------
                      STREAM DEPLETION =   7.352764                          STREAM DEPLETION =   4.131707    
                      INFLOW TO STREAM =   0.000000                          INFLOW TO STREAM =   0.000000    
                          GW TO STREAM =   13225.56                              GW TO STREAM =   20.78065    
                         PRECIPITATION =   0.000000                             PRECIPITATION =   0.000000    
                                RUNOFF =   0.000000                                    RUNOFF =   0.000000    
                CONSTANT CONCENTRATION =   0.000000                    CONSTANT CONCENTRATION =   0.000000    
                                         -------------------                                    --------------
                              TOTAL IN =   13232.91                                  TOTAL IN =   24.91236    

                   STREAM ACCUMULATION =   11.80800                       STREAM ACCUMULATION =   0.000000    
                        STREAM OUTFLOW =   22284.31                            STREAM OUTFLOW =   27.06395    
                          STREAM TO GW =   1324.439                              STREAM TO GW =   1.218714    
                CONSTANT CONCENTRATION =   0.000000                    CONSTANT CONCENTRATION =   0.000000    
                                         -------------------                                    --------------
                             TOTAL OUT =   23620.56                                 TOTAL OUT =   28.28266    

                        NET (IN - OUT) =  -10387.65                            NET (IN - OUT) =  -3.370300    
                 DISCREPANCY (PERCENT) =  -56.37269                     DISCREPANCY (PERCENT) =  -12.67149    
                                              FLOW ERR (QIN-QOUT-DV) =  0.3906250E-02 [L3/T]




 >>>>>>>>>>>>>>>>>>>>>>>>>>>>>>>>>>>>>>>>>>>>>>>>>>>>>>>FOR COMPONENT NO. 01<<<<<<<<<<<<<<<<<<<<<<<<<<<<<<<<<<<<<<<<<<<<<<<<<<<<<<<


                                            -------------------------------------------
                                                      TRANSPORT STEP NO.  136
                                            -------------------------------------------

 TOTAL ELAPSED TIME SINCE BEGINNING OF SIMULATION =   3650.000    D   
 .....................................................................

                     CUMULATIVE MASS BUDGETS AT END OF TRANSPORT STEP  136, TIME STEP    1, STRESS PERIOD    1
                     -----------------------------------------------------------------------------------------

                                                             IN                           OUT
                                                      ----------------             ----------------
                               CONSTANT CONCENTRATION:    0.000000                    0.000000    
                                        CONSTANT HEAD:    0.000000                   -22035.22    
                                                WELLS:    0.000000                   -26199.38    
                                             RECHARGE:    0.000000                    0.000000    
                                         MASS LOADING:    2106056.                    0.000000    
                                               STREAM:    1324.439                   -13225.56    
                               1ST/0TH ORDER REACTION:    0.000000                   -2017900.    
                               MASS STOR (FLOW MODEL):    0.000000                    0.000000    
                                MASS STORAGE (SOLUTE):    3.276562                   -28012.57    
                            ---------------------------------------------------------------------------
                                              [TOTAL]:    2107384.     KG            -2107373.     KG  

                                                          NET (IN - OUT):    10.75000    
                                                   DISCREPANCY (PERCENT):   0.5101124E-03
  ----- 
 | M T |
 | 3 D | END OF MODEL OUTPUT
  ----- 
