             PEST++ Version 3.7.0

                 by Dave Welter
     Computational Water Resource Engineering



using control file: "freyberg.pst"

noptmax = 0, resetting max_run_fail = 1

PEST++ run mode:- 
   regularization (with a "z")

Case dimensions:- 
    Number of parameters = 705
    Number of adjustable parameters = 705
    Number of observations = 1572
    Number of prior estimates = 705

PEST Control Information
    relparmax = 10
    facparmax = 10
    facorig = 0.001
    phiredswh = 0.1
    noptmax = 0
    phiredstp = 0.01
    nphistp = 3
    nphinored = 3
    relparstp = 0.01
    nrelpar = 3

PEST++ Options
    n_iter_base = 1                   
    n_iter_super = 0                   
    max_n_super = 705                 
    super eigthres = 1e-06               
    svd pack = 2                   
    auto norm = -999                
    super relparmax = 0.1                 
    max super frz iter = 5                   
    mat inv = 1                   
    max run fail = 1                   
    max reg iter = 20                  
    use jacobian scaling a la PEST? =  yes
    lambdas = 
            0.1
              1
             10
            100
           1000
    lambda scaling factors = 
            0.9
            0.8
            0.7
            0.5
    using FOSM-based uncertainty estimation for parameters
    parameter covariance file =                     
    derivative run failure forgive = 1              
    run overdue reschedule factor = 1.15                
    run overdue giveup factor = 100                 
    base parameter jacobian filename =                     
    prior parameter covariance upgrade scaling factor = -999      


Model command line(s):- 
    python forward_run.py

Model interface files:-
    template files:
      freyberg.mt3d.ssm.tpl
    model input files:
      freyberg.mt3d.ssm

    instruction files:
      flux.dat.ins
      freyberg.hds.dat.ins
      vol.dat.ins
      mtlist_gw.dat.ins
      mtlist_sw.dat.ins
      freyberg.mt3d.processed.ins
      MT3D001.ucn.dat.ins
    model output files:
      flux.dat
      freyberg.hds.dat
      vol.dat
      mtlist_gw.dat
      mtlist_sw.dat
      freyberg.mt3d.processed
      MT3D001.ucn.dat


Parameter group information
NAME            INCREMENT TYPE     DERIVATIVE INCREMENT    INCREMENT LOWER BOUND  FORCE CENTRAL     INCREMENT MULTIPLIER
kg                    ABSOLUTE                      0.1                        0         SWITCH                        2



Parameter information
NAME           TRANSFORMATION        CHANGE LIMIT  INITIAL VALUE    LOWER BOUND    UPPER BOUND          GROUP          SCALE         OFFSET  DERIVATIVE COMMAND
k_00_00        none                    FACTOR              0              0             10             kg              1              0                   0
k_00_01        none                    FACTOR              0              0             10             kg              1              0                   0
k_00_02        none                    FACTOR              0              0             10             kg              1              0                   0
k_00_03        none                    FACTOR              0              0             10             kg              1              0                   0
k_00_04        none                    FACTOR              0              0             10             kg              1              0                   0
k_00_05        none                    FACTOR              0              0             10             kg              1              0                   0
k_00_06        none                    FACTOR              0              0             10             kg              1              0                   0
k_00_07        none                    FACTOR              0              0             10             kg              1              0                   0
k_00_08        none                    FACTOR              0              0             10             kg              1              0                   0
k_00_09        none                    FACTOR              0              0             10             kg              1              0                   0
k_00_10        none                    FACTOR              0              0             10             kg              1              0                   0
k_00_11        none                    FACTOR              0              0             10             kg              1              0                   0
k_00_12        none                    FACTOR              0              0             10             kg              1              0                   0
k_00_13        none                    FACTOR              0              0             10             kg              1              0                   0
k_00_14        none                    FACTOR              0              0             10             kg              1              0                   0
k_00_15        none                    FACTOR              0              0             10             kg              1              0                   0
k_00_16        none                    FACTOR              0              0             10             kg              1              0                   0
k_00_17        none                    FACTOR              0              0             10             kg              1              0                   0
k_00_18        none                    FACTOR              0              0             10             kg              1              0                   0
k_00_19        none                    FACTOR              0              0             10             kg              1              0                   0
k_01_00        none                    FACTOR              0              0             10             kg              1              0                   0
k_01_01        none                    FACTOR              0              0             10             kg              1              0                   0
k_01_02        none                    FACTOR              0              0             10             kg              1              0                   0
k_01_03        none                    FACTOR              0              0             10             kg              1              0                   0
k_01_04        none                    FACTOR              0              0             10             kg              1              0                   0
k_01_05        none                    FACTOR              0              0             10             kg              1              0                   0
k_01_06        none                    FACTOR              0              0             10             kg              1              0                   0
k_01_07        none                    FACTOR              0              0             10             kg              1              0                   0
k_01_08        none                    FACTOR              0              0             10             kg              1              0                   0
k_01_09        none                    FACTOR              0              0             10             kg              1              0                   0
k_01_10        none                    FACTOR              0              0             10             kg              1              0                   0
k_01_11        none                    FACTOR              0              0             10             kg              1              0                   0
k_01_12        none                    FACTOR              0              0             10             kg              1              0                   0
k_01_13        none                    FACTOR              0              0             10             kg              1              0                   0
k_01_14        none                    FACTOR              0              0             10             kg              1              0                   0
k_01_15        none                    FACTOR              0              0             10             kg              1              0                   0
k_01_16        none                    FACTOR              0              0             10             kg              1              0                   0
k_01_17        none                    FACTOR              0              0             10             kg              1              0                   0
k_01_18        none                    FACTOR              0              0             10             kg              1              0                   0
k_01_19        none                    FACTOR              0              0             10             kg              1              0                   0
k_02_00        none                    FACTOR              0              0             10             kg              1              0                   0
k_02_01        none                    FACTOR              0              0             10             kg              1              0                   0
k_02_02        none                    FACTOR              0              0             10             kg              1              0                   0
k_02_03        none                    FACTOR              0              0             10             kg              1              0                   0
k_02_04        none                    FACTOR              0              0             10             kg              1              0                   0
k_02_05        none                    FACTOR              0              0             10             kg              1              0                   0
k_02_06        none                    FACTOR              0              0             10             kg              1              0                   0
k_02_07        none                    FACTOR              0              0             10             kg              1              0                   0
k_02_08        none                    FACTOR              0              0             10             kg              1              0                   0
k_02_09        none                    FACTOR              0              0             10             kg              1              0                   0
k_02_10        none                    FACTOR              0              0             10             kg              1              0                   0
k_02_11        none                    FACTOR              0              0             10             kg              1              0                   0
k_02_12        none                    FACTOR              0              0             10             kg              1              0                   0
k_02_13        none                    FACTOR              0              0             10             kg              1              0                   0
k_02_14        none                    FACTOR              0              0             10             kg              1              0                   0
k_02_15        none                    FACTOR              0              0             10             kg              1              0                   0
k_02_16        none                    FACTOR              0              0             10             kg              1              0                   0
k_02_17        none                    FACTOR              0              0             10             kg              1              0                   0
k_02_18        none                    FACTOR              0              0             10             kg              1              0                   0
k_02_19        none                    FACTOR              0              0             10             kg              1              0                   0
k_03_00        none                    FACTOR              0              0             10             kg              1              0                   0
k_03_01        none                    FACTOR              0              0             10             kg              1              0                   0
k_03_02        none                    FACTOR              0              0             10             kg              1              0                   0
k_03_03        none                    FACTOR              0              0             10             kg              1              0                   0
k_03_04        none                    FACTOR              0              0             10             kg              1              0                   0
k_03_05        none                    FACTOR              0              0             10             kg              1              0                   0
k_03_06        none                    FACTOR              0              0             10             kg              1              0                   0
k_03_07        none                    FACTOR              0              0             10             kg              1              0                   0
k_03_08        none                    FACTOR              0              0             10             kg              1              0                   0
k_03_09        none                    FACTOR              0              0             10             kg              1              0                   0
k_03_10        none                    FACTOR              0              0             10             kg              1              0                   0
k_03_11        none                    FACTOR              0              0             10             kg              1              0                   0
k_03_12        none                    FACTOR              0              0             10             kg              1              0                   0
k_03_13        none                    FACTOR              0              0             10             kg              1              0                   0
k_03_14        none                    FACTOR              0              0             10             kg              1              0                   0
k_03_15        none                    FACTOR              0              0             10             kg              1              0                   0
k_03_16        none                    FACTOR              0              0             10             kg              1              0                   0
k_03_17        none                    FACTOR              0              0             10             kg              1              0                   0
k_03_18        none                    FACTOR              0              0             10             kg              1              0                   0
k_03_19        none                    FACTOR              0              0             10             kg              1              0                   0
k_04_00        none                    FACTOR              0              0             10             kg              1              0                   0
k_04_01        none                    FACTOR              0              0             10             kg              1              0                   0
k_04_02        none                    FACTOR              0              0             10             kg              1              0                   0
k_04_03        none                    FACTOR              0              0             10             kg              1              0                   0
k_04_04        none                    FACTOR              0              0             10             kg              1              0                   0
k_04_05        none                    FACTOR              0              0             10             kg              1              0                   0
k_04_06        none                    FACTOR              0              0             10             kg              1              0                   0
k_04_07        none                    FACTOR              0              0             10             kg              1              0                   0
k_04_08        none                    FACTOR              0              0             10             kg              1              0                   0
k_04_09        none                    FACTOR              0              0             10             kg              1              0                   0
k_04_10        none                    FACTOR              0              0             10             kg              1              0                   0
k_04_11        none                    FACTOR              0              0             10             kg              1              0                   0
k_04_12        none                    FACTOR              0              0             10             kg              1              0                   0
k_04_13        none                    FACTOR              0              0             10             kg              1              0                   0
k_04_14        none                    FACTOR              0              0             10             kg              1              0                   0
k_04_15        none                    FACTOR              0              0             10             kg              1              0                   0
k_04_16        none                    FACTOR              0              0             10             kg              1              0                   0
k_04_17        none                    FACTOR              0              0             10             kg              1              0                   0
k_04_18        none                    FACTOR              0              0             10             kg              1              0                   0
k_04_19        none                    FACTOR              0              0             10             kg              1              0                   0
k_05_00        none                    FACTOR              0              0             10             kg              1              0                   0
k_05_01        none                    FACTOR              0              0             10             kg              1              0                   0
k_05_02        none                    FACTOR              0              0             10             kg              1              0                   0
k_05_03        none                    FACTOR              0              0             10             kg              1              0                   0
k_05_04        none                    FACTOR              0              0             10             kg              1              0                   0
k_05_05        none                    FACTOR              0              0             10             kg              1              0                   0
k_05_06        none                    FACTOR              0              0             10             kg              1              0                   0
k_05_07        none                    FACTOR              0              0             10             kg              1              0                   0
k_05_08        none                    FACTOR              0              0             10             kg              1              0                   0
k_05_09        none                    FACTOR              0              0             10             kg              1              0                   0
k_05_10        none                    FACTOR              0              0             10             kg              1              0                   0
k_05_11        none                    FACTOR              0              0             10             kg              1              0                   0
k_05_12        none                    FACTOR              0              0             10             kg              1              0                   0
k_05_13        none                    FACTOR              0              0             10             kg              1              0                   0
k_05_14        none                    FACTOR              0              0             10             kg              1              0                   0
k_05_15        none                    FACTOR              0              0             10             kg              1              0                   0
k_05_16        none                    FACTOR              0              0             10             kg              1              0                   0
k_05_17        none                    FACTOR              0              0             10             kg              1              0                   0
k_05_18        none                    FACTOR              0              0             10             kg              1              0                   0
k_05_19        none                    FACTOR              0              0             10             kg              1              0                   0
k_06_00        none                    FACTOR              0              0             10             kg              1              0                   0
k_06_01        none                    FACTOR              0              0             10             kg              1              0                   0
k_06_02        none                    FACTOR              0              0             10             kg              1              0                   0
k_06_03        none                    FACTOR              0              0             10             kg              1              0                   0
k_06_04        none                    FACTOR              0              0             10             kg              1              0                   0
k_06_05        none                    FACTOR              0              0             10             kg              1              0                   0
k_06_06        none                    FACTOR              0              0             10             kg              1              0                   0
k_06_07        none                    FACTOR              0              0             10             kg              1              0                   0
k_06_08        none                    FACTOR              0              0             10             kg              1              0                   0
k_06_09        none                    FACTOR              0              0             10             kg              1              0                   0
k_06_10        none                    FACTOR              0              0             10             kg              1              0                   0
k_06_11        none                    FACTOR              0              0             10             kg              1              0                   0
k_06_12        none                    FACTOR              0              0             10             kg              1              0                   0
k_06_13        none                    FACTOR              0              0             10             kg              1              0                   0
k_06_14        none                    FACTOR              0              0             10             kg              1              0                   0
k_06_15        none                    FACTOR              0              0             10             kg              1              0                   0
k_06_16        none                    FACTOR              0              0             10             kg              1              0                   0
k_06_17        none                    FACTOR              0              0             10             kg              1              0                   0
k_06_18        none                    FACTOR              0              0             10             kg              1              0                   0
k_06_19        none                    FACTOR              0              0             10             kg              1              0                   0
k_07_00        none                    FACTOR              0              0             10             kg              1              0                   0
k_07_01        none                    FACTOR              0              0             10             kg              1              0                   0
k_07_02        none                    FACTOR              0              0             10             kg              1              0                   0
k_07_03        none                    FACTOR              0              0             10             kg              1              0                   0
k_07_04        none                    FACTOR              0              0             10             kg              1              0                   0
k_07_05        none                    FACTOR              0              0             10             kg              1              0                   0
k_07_06        none                    FACTOR              0              0             10             kg              1              0                   0
k_07_07        none                    FACTOR              0              0             10             kg              1              0                   0
k_07_08        none                    FACTOR              0              0             10             kg              1              0                   0
k_07_09        none                    FACTOR              0              0             10             kg              1              0                   0
k_07_10        none                    FACTOR              0              0             10             kg              1              0                   0
k_07_11        none                    FACTOR              0              0             10             kg              1              0                   0
k_07_12        none                    FACTOR              0              0             10             kg              1              0                   0
k_07_13        none                    FACTOR              0              0             10             kg              1              0                   0
k_07_14        none                    FACTOR              0              0             10             kg              1              0                   0
k_07_15        none                    FACTOR              0              0             10             kg              1              0                   0
k_07_16        none                    FACTOR              0              0             10             kg              1              0                   0
k_07_17        none                    FACTOR              0              0             10             kg              1              0                   0
k_07_18        none                    FACTOR              0              0             10             kg              1              0                   0
k_07_19        none                    FACTOR              0              0             10             kg              1              0                   0
k_08_00        none                    FACTOR              0              0             10             kg              1              0                   0
k_08_01        none                    FACTOR              0              0             10             kg              1              0                   0
k_08_02        none                    FACTOR              0              0             10             kg              1              0                   0
k_08_03        none                    FACTOR              0              0             10             kg              1              0                   0
k_08_07        none                    FACTOR              0              0             10             kg              1              0                   0
k_08_08        none                    FACTOR              0              0             10             kg              1              0                   0
k_08_09        none                    FACTOR              0              0             10             kg              1              0                   0
k_08_10        none                    FACTOR              0              0             10             kg              1              0                   0
k_08_11        none                    FACTOR              0              0             10             kg              1              0                   0
k_08_12        none                    FACTOR              0              0             10             kg              1              0                   0
k_08_13        none                    FACTOR              0              0             10             kg              1              0                   0
k_08_14        none                    FACTOR              0              0             10             kg              1              0                   0
k_08_15        none                    FACTOR              0              0             10             kg              1              0                   0
k_08_16        none                    FACTOR              0              0             10             kg              1              0                   0
k_08_17        none                    FACTOR              0              0             10             kg              1              0                   0
k_08_18        none                    FACTOR              0              0             10             kg              1              0                   0
k_08_19        none                    FACTOR              0              0             10             kg              1              0                   0
k_09_00        none                    FACTOR              0              0             10             kg              1              0                   0
k_09_01        none                    FACTOR              0              0             10             kg              1              0                   0
k_09_02        none                    FACTOR              0              0             10             kg              1              0                   0
k_09_03        none                    FACTOR              0              0             10             kg              1              0                   0
k_09_08        none                    FACTOR              0              0             10             kg              1              0                   0
k_09_09        none                    FACTOR              0              0             10             kg              1              0                   0
k_09_10        none                    FACTOR              0              0             10             kg              1              0                   0
k_09_11        none                    FACTOR              0              0             10             kg              1              0                   0
k_09_12        none                    FACTOR              0              0             10             kg              1              0                   0
k_09_13        none                    FACTOR              0              0             10             kg              1              0                   0
k_09_14        none                    FACTOR              0              0             10             kg              1              0                   0
k_09_15        none                    FACTOR              0              0             10             kg              1              0                   0
k_09_16        none                    FACTOR              0              0             10             kg              1              0                   0
k_09_17        none                    FACTOR              0              0             10             kg              1              0                   0
k_09_18        none                    FACTOR              0              0             10             kg              1              0                   0
k_09_19        none                    FACTOR              0              0             10             kg              1              0                   0
k_10_00        none                    FACTOR              0              0             10             kg              1              0                   0
k_10_01        none                    FACTOR              0              0             10             kg              1              0                   0
k_10_02        none                    FACTOR              0              0             10             kg              1              0                   0
k_10_03        none                    FACTOR              0              0             10             kg              1              0                   0
k_10_08        none                    FACTOR              0              0             10             kg              1              0                   0
k_10_09        none                    FACTOR              0              0             10             kg              1              0                   0
k_10_10        none                    FACTOR              0              0             10             kg              1              0                   0
k_10_11        none                    FACTOR              0              0             10             kg              1              0                   0
k_10_12        none                    FACTOR              0              0             10             kg              1              0                   0
k_10_13        none                    FACTOR              0              0             10             kg              1              0                   0
k_10_14        none                    FACTOR              0              0             10             kg              1              0                   0
k_10_15        none                    FACTOR              0              0             10             kg              1              0                   0
k_10_16        none                    FACTOR              0              0             10             kg              1              0                   0
k_10_17        none                    FACTOR              0              0             10             kg              1              0                   0
k_10_18        none                    FACTOR              0              0             10             kg              1              0                   0
k_10_19        none                    FACTOR              0              0             10             kg              1              0                   0
k_11_00        none                    FACTOR              0              0             10             kg              1              0                   0
k_11_01        none                    FACTOR              0              0             10             kg              1              0                   0
k_11_02        none                    FACTOR              0              0             10             kg              1              0                   0
k_11_03        none                    FACTOR              0              0             10             kg              1              0                   0
k_11_08        none                    FACTOR              0              0             10             kg              1              0                   0
k_11_09        none                    FACTOR              0              0             10             kg              1              0                   0
k_11_10        none                    FACTOR              0              0             10             kg              1              0                   0
k_11_11        none                    FACTOR              0              0             10             kg              1              0                   0
k_11_12        none                    FACTOR              0              0             10             kg              1              0                   0
k_11_13        none                    FACTOR              0              0             10             kg              1              0                   0
k_11_14        none                    FACTOR              0              0             10             kg              1              0                   0
k_11_15        none                    FACTOR              0              0             10             kg              1              0                   0
k_11_16        none                    FACTOR              0              0             10             kg              1              0                   0
k_11_17        none                    FACTOR              0              0             10             kg              1              0                   0
k_11_18        none                    FACTOR              0              0             10             kg              1              0                   0
k_11_19        none                    FACTOR              0              0             10             kg              1              0                   0
k_12_00        none                    FACTOR              0              0             10             kg              1              0                   0
k_12_01        none                    FACTOR              0              0             10             kg              1              0                   0
k_12_02        none                    FACTOR              0              0             10             kg              1              0                   0
k_12_03        none                    FACTOR              0              0             10             kg              1              0                   0
k_12_08        none                    FACTOR              0              0             10             kg              1              0                   0
k_12_09        none                    FACTOR              0              0             10             kg              1              0                   0
k_12_10        none                    FACTOR              0              0             10             kg              1              0                   0
k_12_11        none                    FACTOR              0              0             10             kg              1              0                   0
k_12_12        none                    FACTOR              0              0             10             kg              1              0                   0
k_12_13        none                    FACTOR              0              0             10             kg              1              0                   0
k_12_14        none                    FACTOR              0              0             10             kg              1              0                   0
k_12_15        none                    FACTOR              0              0             10             kg              1              0                   0
k_12_16        none                    FACTOR              0              0             10             kg              1              0                   0
k_12_17        none                    FACTOR              0              0             10             kg              1              0                   0
k_12_18        none                    FACTOR              0              0             10             kg              1              0                   0
k_12_19        none                    FACTOR              0              0             10             kg              1              0                   0
k_13_00        none                    FACTOR              0              0             10             kg              1              0                   0
k_13_01        none                    FACTOR              0              0             10             kg              1              0                   0
k_13_02        none                    FACTOR              0              0             10             kg              1              0                   0
k_13_03        none                    FACTOR              0              0             10             kg              1              0                   0
k_13_08        none                    FACTOR              0              0             10             kg              1              0                   0
k_13_09        none                    FACTOR              0              0             10             kg              1              0                   0
k_13_10        none                    FACTOR              0              0             10             kg              1              0                   0
k_13_11        none                    FACTOR              0              0             10             kg              1              0                   0
k_13_12        none                    FACTOR              0              0             10             kg              1              0                   0
k_13_13        none                    FACTOR              0              0             10             kg              1              0                   0
k_13_14        none                    FACTOR              0              0             10             kg              1              0                   0
k_13_15        none                    FACTOR              0              0             10             kg              1              0                   0
k_13_16        none                    FACTOR              0              0             10             kg              1              0                   0
k_13_17        none                    FACTOR              0              0             10             kg              1              0                   0
k_13_18        none                    FACTOR              0              0             10             kg              1              0                   0
k_13_19        none                    FACTOR              0              0             10             kg              1              0                   0
k_14_00        none                    FACTOR              0              0             10             kg              1              0                   0
k_14_01        none                    FACTOR              0              0             10             kg              1              0                   0
k_14_02        none                    FACTOR              0              0             10             kg              1              0                   0
k_14_03        none                    FACTOR              0              0             10             kg              1              0                   0
k_14_08        none                    FACTOR              0              0             10             kg              1              0                   0
k_14_09        none                    FACTOR              0              0             10             kg              1              0                   0
k_14_10        none                    FACTOR              0              0             10             kg              1              0                   0
k_14_11        none                    FACTOR              0              0             10             kg              1              0                   0
k_14_12        none                    FACTOR              0              0             10             kg              1              0                   0
k_14_13        none                    FACTOR              0              0             10             kg              1              0                   0
k_14_14        none                    FACTOR              0              0             10             kg              1              0                   0
k_14_15        none                    FACTOR              0              0             10             kg              1              0                   0
k_14_16        none                    FACTOR              0              0             10             kg              1              0                   0
k_14_17        none                    FACTOR              0              0             10             kg              1              0                   0
k_14_18        none                    FACTOR              0              0             10             kg              1              0                   0
k_14_19        none                    FACTOR              0              0             10             kg              1              0                   0
k_15_00        none                    FACTOR              0              0             10             kg              1              0                   0
k_15_01        none                    FACTOR              0              0             10             kg              1              0                   0
k_15_02        none                    FACTOR              0              0             10             kg              1              0                   0
k_15_03        none                    FACTOR              0              0             10             kg              1              0                   0
k_15_08        none                    FACTOR              0              0             10             kg              1              0                   0
k_15_09        none                    FACTOR              0              0             10             kg              1              0                   0
k_15_10        none                    FACTOR              0              0             10             kg              1              0                   0
k_15_11        none                    FACTOR              0              0             10             kg              1              0                   0
k_15_12        none                    FACTOR              0              0             10             kg              1              0                   0
k_15_13        none                    FACTOR              0              0             10             kg              1              0                   0
k_15_14        none                    FACTOR              0              0             10             kg              1              0                   0
k_15_15        none                    FACTOR              0              0             10             kg              1              0                   0
k_15_16        none                    FACTOR              0              0             10             kg              1              0                   0
k_15_17        none                    FACTOR              0              0             10             kg              1              0                   0
k_15_18        none                    FACTOR              0              0             10             kg              1              0                   0
k_15_19        none                    FACTOR              0              0             10             kg              1              0                   0
k_16_00        none                    FACTOR              0              0             10             kg              1              0                   0
k_16_01        none                    FACTOR              0              0             10             kg              1              0                   0
k_16_02        none                    FACTOR              0              0             10             kg              1              0                   0
k_16_03        none                    FACTOR              0              0             10             kg              1              0                   0
k_16_08        none                    FACTOR              0              0             10             kg              1              0                   0
k_16_09        none                    FACTOR              0              0             10             kg              1              0                   0
k_16_10        none                    FACTOR              0              0             10             kg              1              0                   0
k_16_11        none                    FACTOR              0              0             10             kg              1              0                   0
k_16_12        none                    FACTOR              0              0             10             kg              1              0                   0
k_16_13        none                    FACTOR              0              0             10             kg              1              0                   0
k_16_14        none                    FACTOR              0              0             10             kg              1              0                   0
k_16_15        none                    FACTOR              0              0             10             kg              1              0                   0
k_16_16        none                    FACTOR              0              0             10             kg              1              0                   0
k_16_17        none                    FACTOR              0              0             10             kg              1              0                   0
k_16_18        none                    FACTOR              0              0             10             kg              1              0                   0
k_16_19        none                    FACTOR              0              0             10             kg              1              0                   0
k_17_00        none                    FACTOR              0              0             10             kg              1              0                   0
k_17_01        none                    FACTOR              0              0             10             kg              1              0                   0
k_17_02        none                    FACTOR              0              0             10             kg              1              0                   0
k_17_03        none                    FACTOR              0              0             10             kg              1              0                   0
k_17_08        none                    FACTOR              0              0             10             kg              1              0                   0
k_17_09        none                    FACTOR              0              0             10             kg              1              0                   0
k_17_10        none                    FACTOR              0              0             10             kg              1              0                   0
k_17_11        none                    FACTOR              0              0             10             kg              1              0                   0
k_17_12        none                    FACTOR              0              0             10             kg              1              0                   0
k_17_13        none                    FACTOR              0              0             10             kg              1              0                   0
k_17_14        none                    FACTOR              0              0             10             kg              1              0                   0
k_17_15        none                    FACTOR              0              0             10             kg              1              0                   0
k_17_16        none                    FACTOR              0              0             10             kg              1              0                   0
k_17_17        none                    FACTOR              0              0             10             kg              1              0                   0
k_17_18        none                    FACTOR              0              0             10             kg              1              0                   0
k_17_19        none                    FACTOR              0              0             10             kg              1              0                   0
k_18_00        none                    FACTOR              0              0             10             kg              1              0                   0
k_18_01        none                    FACTOR              0              0             10             kg              1              0                   0
k_18_02        none                    FACTOR              0              0             10             kg              1              0                   0
k_18_03        none                    FACTOR              0              0             10             kg              1              0                   0
k_18_08        none                    FACTOR              0              0             10             kg              1              0                   0
k_18_09        none                    FACTOR              0              0             10             kg              1              0                   0
k_18_10        none                    FACTOR              0              0             10             kg              1              0                   0
k_18_11        none                    FACTOR              0              0             10             kg              1              0                   0
k_18_12        none                    FACTOR              0              0             10             kg              1              0                   0
k_18_13        none                    FACTOR              0              0             10             kg              1              0                   0
k_18_14        none                    FACTOR              0              0             10             kg              1              0                   0
k_18_15        none                    FACTOR              0              0             10             kg              1              0                   0
k_18_16        none                    FACTOR              0              0             10             kg              1              0                   0
k_18_17        none                    FACTOR              0              0             10             kg              1              0                   0
k_18_18        none                    FACTOR              0              0             10             kg              1              0                   0
k_18_19        none                    FACTOR              0              0             10             kg              1              0                   0
k_19_00        none                    FACTOR              0              0             10             kg              1              0                   0
k_19_01        none                    FACTOR              0              0             10             kg              1              0                   0
k_19_02        none                    FACTOR              0              0             10             kg              1              0                   0
k_19_03        none                    FACTOR              0              0             10             kg              1              0                   0
k_19_08        none                    FACTOR              0              0             10             kg              1              0                   0
k_19_09        none                    FACTOR              0              0             10             kg              1              0                   0
k_19_10        none                    FACTOR              0              0             10             kg              1              0                   0
k_19_11        none                    FACTOR              0              0             10             kg              1              0                   0
k_19_12        none                    FACTOR              0              0             10             kg              1              0                   0
k_19_13        none                    FACTOR              0              0             10             kg              1              0                   0
k_19_14        none                    FACTOR              0              0             10             kg              1              0                   0
k_19_15        none                    FACTOR              0              0             10             kg              1              0                   0
k_19_16        none                    FACTOR              0              0             10             kg              1              0                   0
k_19_17        none                    FACTOR              0              0             10             kg              1              0                   0
k_19_18        none                    FACTOR              0              0             10             kg              1              0                   0
k_19_19        none                    FACTOR              0              0             10             kg              1              0                   0
k_20_00        none                    FACTOR              0              0             10             kg              1              0                   0
k_20_01        none                    FACTOR              0              0             10             kg              1              0                   0
k_20_02        none                    FACTOR              0              0             10             kg              1              0                   0
k_20_03        none                    FACTOR              0              0             10             kg              1              0                   0
k_20_08        none                    FACTOR              0              0             10             kg              1              0                   0
k_20_09        none                    FACTOR              0              0             10             kg              1              0                   0
k_20_10        none                    FACTOR              0              0             10             kg              1              0                   0
k_20_11        none                    FACTOR              0              0             10             kg              1              0                   0
k_20_12        none                    FACTOR              0              0             10             kg              1              0                   0
k_20_13        none                    FACTOR              0              0             10             kg              1              0                   0
k_20_14        none                    FACTOR              0              0             10             kg              1              0                   0
k_20_15        none                    FACTOR              0              0             10             kg              1              0                   0
k_20_16        none                    FACTOR              0              0             10             kg              1              0                   0
k_20_17        none                    FACTOR              0              0             10             kg              1              0                   0
k_20_18        none                    FACTOR              0              0             10             kg              1              0                   0
k_20_19        none                    FACTOR              0              0             10             kg              1              0                   0
k_21_00        none                    FACTOR              0              0             10             kg              1              0                   0
k_21_01        none                    FACTOR              0              0             10             kg              1              0                   0
k_21_02        none                    FACTOR              0              0             10             kg              1              0                   0
k_21_03        none                    FACTOR              0              0             10             kg              1              0                   0
k_21_06        none                    FACTOR              0              0             10             kg              1              0                   0
k_21_07        none                    FACTOR              0              0             10             kg              1              0                   0
k_21_08        none                    FACTOR              0              0             10             kg              1              0                   0
k_21_09        none                    FACTOR              0              0             10             kg              1              0                   0
k_21_10        none                    FACTOR              0              0             10             kg              1              0                   0
k_21_11        none                    FACTOR              0              0             10             kg              1              0                   0
k_21_12        none                    FACTOR              0              0             10             kg              1              0                   0
k_21_13        none                    FACTOR              0              0             10             kg              1              0                   0
k_21_14        none                    FACTOR              0              0             10             kg              1              0                   0
k_21_15        none                    FACTOR              0              0             10             kg              1              0                   0
k_21_16        none                    FACTOR              0              0             10             kg              1              0                   0
k_21_17        none                    FACTOR              0              0             10             kg              1              0                   0
k_21_18        none                    FACTOR              0              0             10             kg              1              0                   0
k_21_19        none                    FACTOR              0              0             10             kg              1              0                   0
k_22_00        none                    FACTOR              0              0             10             kg              1              0                   0
k_22_01        none                    FACTOR              0              0             10             kg              1              0                   0
k_22_02        none                    FACTOR              0              0             10             kg              1              0                   0
k_22_03        none                    FACTOR              0              0             10             kg              1              0                   0
k_22_04        none                    FACTOR              0              0             10             kg              1              0                   0
k_22_06        none                    FACTOR              0              0             10             kg              1              0                   0
k_22_07        none                    FACTOR              0              0             10             kg              1              0                   0
k_22_08        none                    FACTOR              0              0             10             kg              1              0                   0
k_22_09        none                    FACTOR              0              0             10             kg              1              0                   0
k_22_10        none                    FACTOR              0              0             10             kg              1              0                   0
k_22_11        none                    FACTOR              0              0             10             kg              1              0                   0
k_22_12        none                    FACTOR              0              0             10             kg              1              0                   0
k_22_13        none                    FACTOR              0              0             10             kg              1              0                   0
k_22_14        none                    FACTOR              0              0             10             kg              1              0                   0
k_22_15        none                    FACTOR              0              0             10             kg              1              0                   0
k_22_16        none                    FACTOR              0              0             10             kg              1              0                   0
k_22_17        none                    FACTOR              0              0             10             kg              1              0                   0
k_22_18        none                    FACTOR              0              0             10             kg              1              0                   0
k_22_19        none                    FACTOR              0              0             10             kg              1              0                   0
k_23_00        none                    FACTOR              0              0             10             kg              1              0                   0
k_23_01        none                    FACTOR              0              0             10             kg              1              0                   0
k_23_02        none                    FACTOR              0              0             10             kg              1              0                   0
k_23_03        none                    FACTOR              0              0             10             kg              1              0                   0
k_23_04        none                    FACTOR              0              0             10             kg              1              0                   0
k_23_05        none                    FACTOR              0              0             10             kg              1              0                   0
k_23_06        none                    FACTOR              0              0             10             kg              1              0                   0
k_23_07        none                    FACTOR              0              0             10             kg              1              0                   0
k_23_08        none                    FACTOR              0              0             10             kg              1              0                   0
k_23_09        none                    FACTOR              0              0             10             kg              1              0                   0
k_23_10        none                    FACTOR              0              0             10             kg              1              0                   0
k_23_11        none                    FACTOR              0              0             10             kg              1              0                   0
k_23_12        none                    FACTOR              0              0             10             kg              1              0                   0
k_23_13        none                    FACTOR              0              0             10             kg              1              0                   0
k_23_14        none                    FACTOR              0              0             10             kg              1              0                   0
k_23_15        none                    FACTOR              0              0             10             kg              1              0                   0
k_23_16        none                    FACTOR              0              0             10             kg              1              0                   0
k_23_17        none                    FACTOR              0              0             10             kg              1              0                   0
k_23_18        none                    FACTOR              0              0             10             kg              1              0                   0
k_23_19        none                    FACTOR              0              0             10             kg              1              0                   0
k_24_00        none                    FACTOR              0              0             10             kg              1              0                   0
k_24_01        none                    FACTOR              0              0             10             kg              1              0                   0
k_24_02        none                    FACTOR              0              0             10             kg              1              0                   0
k_24_03        none                    FACTOR              0              0             10             kg              1              0                   0
k_24_04        none                    FACTOR              0              0             10             kg              1              0                   0
k_24_05        none                    FACTOR              0              0             10             kg              1              0                   0
k_24_06        none                    FACTOR              0              0             10             kg              1              0                   0
k_24_07        none                    FACTOR              0              0             10             kg              1              0                   0
k_24_08        none                    FACTOR              0              0             10             kg              1              0                   0
k_24_09        none                    FACTOR              0              0             10             kg              1              0                   0
k_24_10        none                    FACTOR              0              0             10             kg              1              0                   0
k_24_11        none                    FACTOR              0              0             10             kg              1              0                   0
k_24_12        none                    FACTOR              0              0             10             kg              1              0                   0
k_24_13        none                    FACTOR              0              0             10             kg              1              0                   0
k_24_14        none                    FACTOR              0              0             10             kg              1              0                   0
k_24_15        none                    FACTOR              0              0             10             kg              1              0                   0
k_24_16        none                    FACTOR              0              0             10             kg              1              0                   0
k_24_17        none                    FACTOR              0              0             10             kg              1              0                   0
k_24_18        none                    FACTOR              0              0             10             kg              1              0                   0
k_24_19        none                    FACTOR              0              0             10             kg              1              0                   0
k_25_00        none                    FACTOR              0              0             10             kg              1              0                   0
k_25_01        none                    FACTOR              0              0             10             kg              1              0                   0
k_25_02        none                    FACTOR              0              0             10             kg              1              0                   0
k_25_03        none                    FACTOR              0              0             10             kg              1              0                   0
k_25_04        none                    FACTOR              0              0             10             kg              1              0                   0
k_25_05        none                    FACTOR              0              0             10             kg              1              0                   0
k_25_06        none                    FACTOR              0              0             10             kg              1              0                   0
k_25_07        none                    FACTOR              0              0             10             kg              1              0                   0
k_25_08        none                    FACTOR              0              0             10             kg              1              0                   0
k_25_09        none                    FACTOR              0              0             10             kg              1              0                   0
k_25_10        none                    FACTOR              0              0             10             kg              1              0                   0
k_25_11        none                    FACTOR              0              0             10             kg              1              0                   0
k_25_12        none                    FACTOR              0              0             10             kg              1              0                   0
k_25_13        none                    FACTOR              0              0             10             kg              1              0                   0
k_25_14        none                    FACTOR              0              0             10             kg              1              0                   0
k_25_15        none                    FACTOR              0              0             10             kg              1              0                   0
k_25_16        none                    FACTOR              0              0             10             kg              1              0                   0
k_25_17        none                    FACTOR              0              0             10             kg              1              0                   0
k_25_18        none                    FACTOR              0              0             10             kg              1              0                   0
k_25_19        none                    FACTOR              0              0             10             kg              1              0                   0
k_26_00        none                    FACTOR              0              0             10             kg              1              0                   0
k_26_01        none                    FACTOR              0              0             10             kg              1              0                   0
k_26_02        none                    FACTOR              0              0             10             kg              1              0                   0
k_26_03        none                    FACTOR              0              0             10             kg              1              0                   0
k_26_04        none                    FACTOR              0              0             10             kg              1              0                   0
k_26_05        none                    FACTOR              0              0             10             kg              1              0                   0
k_26_06        none                    FACTOR              0              0             10             kg              1              0                   0
k_26_07        none                    FACTOR              0              0             10             kg              1              0                   0
k_26_08        none                    FACTOR              0              0             10             kg              1              0                   0
k_26_09        none                    FACTOR              0              0             10             kg              1              0                   0
k_26_10        none                    FACTOR              0              0             10             kg              1              0                   0
k_26_11        none                    FACTOR              0              0             10             kg              1              0                   0
k_26_12        none                    FACTOR              0              0             10             kg              1              0                   0
k_26_13        none                    FACTOR              0              0             10             kg              1              0                   0
k_26_14        none                    FACTOR              0              0             10             kg              1              0                   0
k_26_15        none                    FACTOR              0              0             10             kg              1              0                   0
k_26_16        none                    FACTOR              0              0             10             kg              1              0                   0
k_26_17        none                    FACTOR              0              0             10             kg              1              0                   0
k_26_18        none                    FACTOR              0              0             10             kg              1              0                   0
k_26_19        none                    FACTOR              0              0             10             kg              1              0                   0
k_27_00        none                    FACTOR              0              0             10             kg              1              0                   0
k_27_01        none                    FACTOR              0              0             10             kg              1              0                   0
k_27_02        none                    FACTOR              0              0             10             kg              1              0                   0
k_27_03        none                    FACTOR              0              0             10             kg              1              0                   0
k_27_04        none                    FACTOR              0              0             10             kg              1              0                   0
k_27_05        none                    FACTOR              0              0             10             kg              1              0                   0
k_27_06        none                    FACTOR              0              0             10             kg              1              0                   0
k_27_07        none                    FACTOR              0              0             10             kg              1              0                   0
k_27_08        none                    FACTOR              0              0             10             kg              1              0                   0
[...]
   ucn_00_031_002_000          ucn             0.000000             0.000000             0.000000             0.000000
   ucn_00_031_003_000          ucn             0.000000             0.000000             0.000000             0.000000
   ucn_00_031_004_000          ucn             0.000000             0.000000             0.000000             0.000000
   ucn_00_031_005_000          ucn             0.000000             0.000000             0.000000             0.000000
   ucn_00_031_006_000          ucn             0.000000             0.000000             0.000000             0.000000
   ucn_00_031_007_000          ucn             0.000000             0.000000             0.000000             0.000000
   ucn_00_031_008_000          ucn             0.000000             0.000000             0.000000             0.000000
   ucn_00_031_009_000          ucn             0.000000             0.000000             0.000000             0.000000
   ucn_00_031_010_000          ucn             0.000000             0.000000             0.000000             0.000000
   ucn_00_031_011_000          ucn             0.000000             0.000000             0.000000             0.000000
   ucn_00_031_012_000          ucn             0.000000             0.000000             0.000000             0.000000
   ucn_00_031_013_000          ucn             0.000000             0.000000             0.000000             0.000000
   ucn_00_031_014_000          ucn             0.000000             0.000000             0.000000             0.000000
   ucn_00_031_015_000          ucn             0.000000             0.000000             0.000000             0.000000
   ucn_00_031_016_000          ucn             0.000000             0.000000             0.000000             0.000000
   ucn_00_031_017_000          ucn             0.000000             0.000000             0.000000             0.000000
   ucn_00_031_018_000          ucn             0.000000             0.000000             0.000000             0.000000
   ucn_00_031_019_000          ucn             0.000000             0.000000             0.000000             0.000000
   ucn_00_032_001_000          ucn             0.000000             0.000000             0.000000             0.000000
   ucn_00_032_002_000          ucn             0.000000             0.000000             0.000000             0.000000
   ucn_00_032_003_000          ucn             0.000000             0.000000             0.000000             0.000000
   ucn_00_032_004_000          ucn             0.000000             0.000000             0.000000             0.000000
   ucn_00_032_005_000          ucn             0.000000             0.000000             0.000000             0.000000
   ucn_00_032_006_000          ucn             0.000000             0.000000             0.000000             0.000000
   ucn_00_032_007_000          ucn             0.000000             0.000000             0.000000             0.000000
   ucn_00_032_008_000          ucn             0.000000             0.000000             0.000000             0.000000
   ucn_00_032_009_000          ucn             0.000000             0.000000             0.000000             0.000000
   ucn_00_032_010_000          ucn             0.000000             0.000000             0.000000             0.000000
   ucn_00_032_011_000          ucn             0.000000             0.000000             0.000000             0.000000
   ucn_00_032_012_000          ucn             0.000000             0.000000             0.000000             0.000000
   ucn_00_032_013_000          ucn             0.000000             0.000000             0.000000             0.000000
   ucn_00_032_014_000          ucn             0.000000             0.000000             0.000000             0.000000
   ucn_00_032_015_000          ucn             0.000000             0.000000             0.000000             0.000000
   ucn_00_032_016_000          ucn             0.000000             0.000000             0.000000             0.000000
   ucn_00_032_017_000          ucn             0.000000             0.000000             0.000000             0.000000
   ucn_00_032_018_000          ucn             0.000000             0.000000             0.000000             0.000000
   ucn_00_032_019_000          ucn             0.000000             0.000000             0.000000             0.000000
   ucn_00_033_002_000          ucn             0.000000             0.000000             0.000000             0.000000
   ucn_00_033_003_000          ucn             0.000000             0.000000             0.000000             0.000000
   ucn_00_033_004_000          ucn             0.000000             0.000000             0.000000             0.000000
   ucn_00_033_005_000          ucn             0.000000             0.000000             0.000000             0.000000
   ucn_00_033_006_000          ucn             0.000000             0.000000             0.000000             0.000000
   ucn_00_033_007_000          ucn             0.000000             0.000000             0.000000             0.000000
   ucn_00_033_008_000          ucn             0.000000             0.000000             0.000000             0.000000
   ucn_00_033_009_000          ucn             0.000000             0.000000             0.000000             0.000000
   ucn_00_033_010_000          ucn             0.000000             0.000000             0.000000             0.000000
   ucn_00_033_011_000          ucn             0.000000             0.000000             0.000000             0.000000
   ucn_00_033_012_000          ucn             0.000000             0.000000             0.000000             0.000000
   ucn_00_033_013_000          ucn             0.000000             0.000000             0.000000             0.000000
   ucn_00_033_014_000          ucn             0.000000             0.000000             0.000000             0.000000
   ucn_00_033_015_000          ucn             0.000000             0.000000             0.000000             0.000000
   ucn_00_033_016_000          ucn             0.000000             0.000000             0.000000             0.000000
   ucn_00_033_017_000          ucn             0.000000             0.000000             0.000000             0.000000
   ucn_00_033_018_000          ucn             0.000000             0.000000             0.000000             0.000000
   ucn_00_033_019_000          ucn             0.000000             0.000000             0.000000             0.000000
   ucn_00_034_003_000          ucn             0.000000             0.000000             0.000000             0.000000
   ucn_00_034_004_000          ucn             0.000000             0.000000             0.000000             0.000000
   ucn_00_034_005_000          ucn             0.000000             0.000000             0.000000             0.000000
   ucn_00_034_006_000          ucn             0.000000             0.000000             0.000000             0.000000
   ucn_00_034_007_000          ucn             0.000000             0.000000             0.000000             0.000000
   ucn_00_034_008_000          ucn             0.000000             0.000000             0.000000             0.000000
   ucn_00_034_009_000          ucn             0.000000             0.000000             0.000000             0.000000
   ucn_00_034_010_000          ucn             0.000000             0.000000             0.000000             0.000000
   ucn_00_034_011_000          ucn             0.000000             0.000000             0.000000             0.000000
   ucn_00_034_012_000          ucn             0.000000             0.000000             0.000000             0.000000
   ucn_00_034_013_000          ucn             0.000000             0.000000             0.000000             0.000000
   ucn_00_034_014_000          ucn             0.000000             0.000000             0.000000             0.000000
   ucn_00_034_015_000          ucn             0.000000             0.000000             0.000000             0.000000
   ucn_00_034_016_000          ucn             0.000000             0.000000             0.000000             0.000000
   ucn_00_034_017_000          ucn             0.000000             0.000000             0.000000             0.000000
   ucn_00_034_018_000          ucn             0.000000             0.000000             0.000000             0.000000
   ucn_00_034_019_000          ucn             0.000000             0.000000             0.000000             0.000000
   ucn_00_035_004_000          ucn             0.000000             0.000000             0.000000             0.000000
   ucn_00_035_005_000          ucn             0.000000             0.000000             0.000000             0.000000
   ucn_00_035_006_000          ucn             0.000000             0.000000             0.000000             0.000000
   ucn_00_035_007_000          ucn             0.000000             0.000000             0.000000             0.000000
   ucn_00_035_008_000          ucn             0.000000             0.000000             0.000000             0.000000
   ucn_00_035_009_000          ucn             0.000000             0.000000             0.000000             0.000000
   ucn_00_035_010_000          ucn             0.000000             0.000000             0.000000             0.000000
   ucn_00_035_011_000          ucn             0.000000             0.000000             0.000000             0.000000
   ucn_00_035_012_000          ucn             0.000000             0.000000             0.000000             0.000000
   ucn_00_035_013_000          ucn             0.000000             0.000000             0.000000             0.000000
   ucn_00_035_014_000          ucn             0.000000             0.000000             0.000000             0.000000
   ucn_00_035_015_000          ucn             0.000000             0.000000             0.000000             0.000000
   ucn_00_035_016_000          ucn             0.000000             0.000000             0.000000             0.000000
   ucn_00_035_017_000          ucn             0.000000             0.000000             0.000000             0.000000
   ucn_00_035_018_000          ucn             0.000000             0.000000             0.000000             0.000000
   ucn_00_036_004_000          ucn             0.000000             0.000000             0.000000             0.000000
   ucn_00_036_005_000          ucn             0.000000             0.000000             0.000000             0.000000
   ucn_00_036_006_000          ucn             0.000000             0.000000             0.000000             0.000000
   ucn_00_036_007_000          ucn             0.000000             0.000000             0.000000             0.000000
   ucn_00_036_008_000          ucn             0.000000             0.000000             0.000000             0.000000
   ucn_00_036_009_000          ucn             0.000000             0.000000             0.000000             0.000000
   ucn_00_036_010_000          ucn             0.000000             0.000000             0.000000             0.000000
   ucn_00_036_011_000          ucn             0.000000             0.000000             0.000000             0.000000
   ucn_00_036_012_000          ucn             0.000000             0.000000             0.000000             0.000000
   ucn_00_036_013_000          ucn             0.000000             0.000000             0.000000             0.000000
   ucn_00_036_014_000          ucn             0.000000             0.000000             0.000000             0.000000
   ucn_00_036_015_000          ucn             0.000000             0.000000             0.000000             0.000000
   ucn_00_036_016_000          ucn             0.000000             0.000000             0.000000             0.000000
   ucn_00_036_017_000          ucn             0.000000             0.000000             0.000000             0.000000
   ucn_00_036_018_000          ucn             0.000000             0.000000             0.000000             0.000000
   ucn_00_037_005_000          ucn             0.000000             0.000000             0.000000             0.000000
   ucn_00_037_006_000          ucn             0.000000             0.000000             0.000000             0.000000
   ucn_00_037_007_000          ucn             0.000000             0.000000             0.000000             0.000000
   ucn_00_037_008_000          ucn             0.000000             0.000000             0.000000             0.000000
   ucn_00_037_009_000          ucn             0.000000             0.000000             0.000000             0.000000
   ucn_00_037_010_000          ucn             0.000000             0.000000             0.000000             0.000000
   ucn_00_037_011_000          ucn             0.000000             0.000000             0.000000             0.000000
   ucn_00_037_012_000          ucn             0.000000             0.000000             0.000000             0.000000
   ucn_00_037_013_000          ucn             0.000000             0.000000             0.000000             0.000000
   ucn_00_037_014_000          ucn             0.000000             0.000000             0.000000             0.000000
   ucn_00_037_015_000          ucn             0.000000             0.000000             0.000000             0.000000
   ucn_00_037_016_000          ucn             0.000000             0.000000             0.000000             0.000000
   ucn_00_037_017_000          ucn             0.000000             0.000000             0.000000             0.000000
   ucn_00_038_005_000          ucn             0.000000             0.000000             0.000000             0.000000
   ucn_00_038_006_000          ucn             0.000000             0.000000             0.000000             0.000000
   ucn_00_038_007_000          ucn             0.000000             0.000000             0.000000             0.000000
   ucn_00_038_008_000          ucn             0.000000             0.000000             0.000000             0.000000
   ucn_00_038_009_000          ucn             0.000000             0.000000             0.000000             0.000000
   ucn_00_038_010_000          ucn             0.000000             0.000000             0.000000             0.000000
   ucn_00_038_011_000          ucn             0.000000             0.000000             0.000000             0.000000
   ucn_00_038_012_000          ucn             0.000000             0.000000             0.000000             0.000000
   ucn_00_038_013_000          ucn             0.000000             0.000000             0.000000             0.000000
   ucn_00_038_014_000          ucn             0.000000             0.000000             0.000000             0.000000
   ucn_00_038_015_000          ucn             0.000000             0.000000             0.000000             0.000000
   ucn_00_038_016_000          ucn             0.000000             0.000000             0.000000             0.000000
   ucn_00_039_005_000          ucn             0.000000             0.000000             0.000000             0.000000
   ucn_00_039_006_000          ucn             0.000000             0.000000             0.000000             0.000000
   ucn_00_039_007_000          ucn             0.000000             0.000000             0.000000             0.000000
   ucn_00_039_008_000          ucn             0.000000             0.000000             0.000000             0.000000
   ucn_00_039_009_000          ucn             0.000000             0.000000             0.000000             0.000000
   ucn_00_039_010_000          ucn             0.000000             0.000000             0.000000             0.000000
   ucn_00_039_011_000          ucn             0.000000             0.000000             0.000000             0.000000
   ucn_00_039_012_000          ucn             0.000000             0.000000             0.000000             0.000000
   ucn_00_039_013_000          ucn             0.000000             0.000000             0.000000             0.000000
   ucn_00_039_014_000          ucn             0.000000             0.000000             0.000000             0.000000

Final composite objective function 
  Final phi                                           Total : 0.000000
  Contribution to phi from observation group  "flx_constan" : 0.000000
  Contribution to phi from observation group   "flx_in-out" : 0.000000
  Contribution to phi from observation group  "flx_percent" : 0.000000
  Contribution to phi from observation group  "flx_recharg" : 0.000000
  Contribution to phi from observation group  "flx_storage" : 0.000000
  Contribution to phi from observation group  "flx_stream_" : 0.000000
  Contribution to phi from observation group    "flx_total" : 0.000000
  Contribution to phi from observation group    "flx_wells" : 0.000000
  Contribution to phi from observation group  "gw_1sorre1c" : 0.000000
  Contribution to phi from observation group    "gw_coco1c" : 0.000000
  Contribution to phi from observation group    "gw_cohe1c" : 0.000000
  Contribution to phi from observation group  "gw_mastfl1c" : 0.000000
  Contribution to phi from observation group  "gw_mastso1c" : 0.000000
  Contribution to phi from observation group      "gw_re1c" : 0.000000
  Contribution to phi from observation group      "gw_st1c" : 0.000000
  Contribution to phi from observation group      "gw_we1c" : 0.000000
  Contribution to phi from observation group         "gwcn" : 0.000000
  Contribution to phi from observation group          "hds" : 0.000000
  Contribution to phi from observation group  "less_swconc" : 0.000000
  Contribution to phi from observation group    "sw_coco1c" : 0.000000
  Contribution to phi from observation group    "sw_coco1f" : 0.000000
  Contribution to phi from observation group  "sw_gwtost1c" : 0.000000
  Contribution to phi from observation group  "sw_gwtost1f" : 0.000000
  Contribution to phi from observation group  "sw_intost1c" : 0.000000
  Contribution to phi from observation group  "sw_intost1f" : 0.000000
  Contribution to phi from observation group      "sw_pr1c" : 0.000000
  Contribution to phi from observation group      "sw_pr1f" : 0.000000
  Contribution to phi from observation group      "sw_ru1c" : 0.000000
  Contribution to phi from observation group      "sw_ru1f" : 0.000000
  Contribution to phi from observation group      "sw_st1c" : 0.000000
  Contribution to phi from observation group      "sw_st1f" : 0.000000
  Contribution to phi from observation group    "sw_stac1c" : 0.000000
  Contribution to phi from observation group    "sw_stac1f" : 0.000000
  Contribution to phi from observation group    "sw_stde1c" : 0.000000
  Contribution to phi from observation group    "sw_stde1f" : 0.000000
  Contribution to phi from observation group  "sw_sttogw1c" : 0.000000
  Contribution to phi from observation group  "sw_sttogw1f" : 0.000000
  Contribution to phi from observation group         "swgw" : 0.000000
  Contribution to phi from observation group          "ucn" : 0.000000
  Contribution to phi from observation group  "vol_constan" : 0.000000
  Contribution to phi from observation group   "vol_in-out" : 0.000000
  Contribution to phi from observation group  "vol_percent" : 0.000000
  Contribution to phi from observation group  "vol_recharg" : 0.000000
  Contribution to phi from observation group  "vol_storage" : 0.000000
  Contribution to phi from observation group  "vol_stream_" : 0.000000
  Contribution to phi from observation group    "vol_total" : 0.000000
  Contribution to phi from observation group    "vol_wells" : 0.000000
  Contribution to phi from observation group  "greater_bnd" : 0.000000


Number of forward model runs performed during optimiztion: 1
