 LISTING FILE: freyberg.mt3d.list
                         UNIT  16

 OPENING mt3d_link.ftl
 FILE TYPE:FTL   UNIT  10

 OPENING freyberg.mt3d.btn
 FILE TYPE:BTN   UNIT  31

 OPENING freyberg.mt3d.gcg
 FILE TYPE:GCG   UNIT  35

 OPENING freyberg.mt3d.rct
 FILE TYPE:RCT   UNIT  36

 OPENING freyberg.mt3d.adv
 FILE TYPE:ADV   UNIT  32

 OPENING freyberg.mt3d.ssm
 FILE TYPE:SSM   UNIT  34

 OPENING freyberg.mt3d.sft
 FILE TYPE:SFT   UNIT  19

 OPENING .\delr.ref
 FILE TYPE:DATA   UNIT2001

 OPENING .\delc.ref
 FILE TYPE:DATA   UNIT2002

 OPENING .\htop.ref
 FILE TYPE:DATA   UNIT2003

 OPENING .\dz_layer_1.ref
 FILE TYPE:DATA   UNIT2004

 OPENING .\prsity_layer_1.ref
 FILE TYPE:DATA   UNIT2005

 OPENING .\icbund_layer_1.ref
 FILE TYPE:DATA   UNIT2006

 OPENING .\sconc1_layer_1.ref
 FILE TYPE:DATA   UNIT2007

 OPENING .\rc11_layer_1.ref
 FILE TYPE:DATA   UNIT2008

 OPENING .\rc21_layer_1.ref
 FILE TYPE:DATA   UNIT2009

 OPENING .\crch10.ref
 FILE TYPE:DATA   UNIT2011

 OPENING freyberg.mt3d
 FILE TYPE:DATA   UNIT1001

                              +++++++++++++++++++++++++++++++++++++++++++++++++++++++++++++++++++++++
                              +                                                                     +
                              +                              MT3D-USGS                              +
                              +             A Modular 3D Multi-Species Transport Model              +
                              +    For Simulation of Advection, Dispersion and Chemical Reactions   +
                              +                of Contaminants in Groundwater Systems               +
                              +                                                                     +
                              +++++++++++++++++++++++++++++++++++++++++++++++++++++++++++++++++++++++

  ----- 
 | M T | ## BTN for MT3DMS, generated by Flopy.                                          
 | 3 D | ##                                                                              
  ----- 
 THE TRANSPORT MODEL CONSISTS OF     1 LAYER(S)   40 ROW(S)   20 COLUMN(S)
 NUMBER OF STRESS PERIOD(S) FOR TRANSPORT SIMULATION =    3
 NUMBER OF ALL COMPONENTS INCLUDED IN SIMULATION =    1
 NUMBER OF MOBILE COMPONENTS INCLUDED IN SIMULATION =    1
 UNIT FOR TIME IS D   ;  UNIT FOR LENGTH IS M   ;  UNIT FOR MASS IS KG  
 OPTIONAL PACKAGES INCLUDED IN CURRENT SIMULATION:
  o ADV   ON UNIT 32
  o SSM   ON UNIT 34
  o RCT   ON UNIT 36
  o GCG   ON UNIT 35
  o SFT   ON UNIT 19


 BTN1 -- BASIC TRANSPORT PACKAGE, VERSION 1, MAY 2016, INPUT READ FROM UNIT 31

 BTN PACKAGE KEYWORD INPUT: 
 DRYCELL OPTION NOT SET
  DRY CELL BUDGET OMITTED FROM GLAOBAL MASS BALANCE SUMMARY

 LAYER NUMBER  AQUIFER TYPE
 ------------  ------------
       1            1



           WIDTH ALONG ROWS (DELR) 
 READING ON UNIT 2001 WITH FORMAT:           (20E15.6) 



           WIDTH ALONG COLS (DELC) 
 READING ON UNIT 2002 WITH FORMAT:           (40E15.6) 



           TOP ELEV. OF 1ST LAYER  
 READING ON UNIT 2003 WITH FORMAT:           (20E15.6) 



           CELL THICKNESS (DZ)      FOR LAYER   1
 READING ON UNIT 2004 WITH FORMAT:           (20E15.6) 



           POROSITY                 FOR LAYER   1
 READING ON UNIT 2005 WITH FORMAT:           (20E15.6) 



           CONCN. BOUNDARY ARRAY    FOR LAYER   1
 READING ON UNIT 2006 WITH FORMAT:             (20I10) 



           INITIAL CONC.: COMP.  01 FOR LAYER   1
 READING ON UNIT 2007 WITH FORMAT:           (20E15.6) 

 VALUE INDICATING INACTIVE CONCENTRATION CELLS =   0.1000000E+31
 MINIMUM SATURATED THICKNESS [THKMIN] ALLOWED =  0.0100000 OF TOTAL CELL THICKNESS


 OUTPUT CONTROL OPTIONS
 ----------------------

 DO NOT PRINT CELL CONCENTRATION
 DO NOT PRINT PARTICLE NUMBER IN EACH CELL
 DO NOT PRINT RETARDATION FACTOR
 DO NOT PRINT DISPERSION COEFFICIENT
 SAVE DISSOLVED PHASE CONCENTRATIONS IN UNFORMATTED FILES [MT3Dnnn.UCN]
  FOR EACH SPECIES ON UNITS 201 AND ABOVE

 NUMBER OF TIMES AT WHICH SIMULATION RESULTS ARE SAVED =    0

 NUMBER OF OBSERVATION POINTS =    0

 SAVE ONE-LINE SUMMARY OF MASS BUDGETS IN FILES [MT3Dnnn.MAS]
  FOR EACH SPECIES ON UNITS 601 AND ABOVE, EVERY  1 TRANSPORT STEPS

 MAXIMUM LENGTH ALONG THE X (J) AXIS =   5000.000    
 MAXIMUM LENGTH ALONG THE Y (I) AXIS =   10000.00    
 MAXIMUM LENGTH ALONG THE Z (K) AXIS =   35.20274    
 FMI1 -- FLOW MODEL INTERFACE PACKAGE, VERSION 1, MAY 2016, INPUT READ FROM UNIT 10
 FLOW MODEL IS TRANSIENT
 FLOW MODEL CONTAINS CONSTANT-HEAD CELLS


 ADV1 -- ADVECTION PACKAGE, VERSION 1, MAY 2016, INPUT READ FROM UNIT 32
 ADVECTION IS SOLVED WITH THE ULTIMATE SCHEME
 COURANT NUMBER ALLOWED IN SOLVING THE ADVECTION TERM = 0.750    


 ADVECTION SOLUTION OPTIONS
 --------------------------

 ADVECTION IS SOLVED WITH THE ULTIMATE SCHEME
 COURANT NUMBER ALLOWED IN SOLVING THE ADVECTION TERM = 0.750    

 SSM1 -- SINK & SOURCE MIXING PACKAGE, VERSION 1, MAY 2016, INPUT READ FROM UNIT 34
 HEADER LINE OF THE SSM PACKAGE INPUT FILE:
  t f t f f f f f f f f f f f f f                                        
 MAJOR STRESS COMPONENTS PRESENT IN THE FLOW MODEL:
  o WELL [WEL]
  o RECHARGE [RCH]
 MAXIMUM NUMBER OF POINT SINKS/SOURCES =     816

 RCT1 -- CHEMICAL REACTION PACKAGE, VERSION 1, MAY 2016, INPUT READ FROM UNIT 36
 NO SORPTION [OR DUAL-DOMAIN MODEL] IS SIMULATED
 FIRST-ORDER IRREVERSIBLE REACTION [RADIOACTIVE DECAY OR BIODEGRADATION] IS SIMULATED
 REACTION COEFFICIENTS ASSIGNED CELL-BY-CELL
 INITIAL SORBED/IMMOBILE PHASE CONCENTRATION ASSIGNED BY DEFAULT


 SORPTION AND 1ST/0TH ORDER REACTION PARAMETERS
 ----------------------------------------------




           SOLUTE RXN RATE: COMP 01 FOR LAYER   1
 READING ON UNIT 2008 WITH FORMAT:           (20E15.6) 



           SORBED RXN RATE: COMP 01 FOR LAYER   1
 READING ON UNIT 2009 WITH FORMAT:           (20E15.6) 

 MAXIMUM STEPSIZE WHICH MEETS STABILITY CRITERION OF THE REACTION TERM
 = 1000.0     AT K=   1, I=   1, J=   1

 GCG1 -- GENERALIZED CONJUGATE GRADIENT SOLVER PACKAGE, VERSION 1, OCTOBER 2010 INPUT READ FROM UNIT 35
 MAXIMUM OF  100 OUTER ITERATIONS
        AND   50 INNER ITERATIONS ALLOWED FOR CLOSURE
 THE PRECONDITIONING TYPE SELECTED IS MODIFIED INCOMPLETE CHOLESKY (MIC).
 DISPERSION CROSS TERMS LUMPED INTO RIGHT-HAND-SIDE



                                               SOLUTION BY THE GENERALIZED CONJUGATE GRADIENT METHOD
                                               -----------------------------------------------------
                                     MAXIMUM OUTER ITERATIONS ALLOWED FOR CLOSURE =      100
                                     MAXIMUM INNER ITERATIONS ALLOWED FOR CLOSURE =       50
                                                    PRECONDITIONING TYPE SELECTED =    3
                                                           ACCELERATION PARAMETER =     1.0000    
                                       CONCENTRATION CHANGE CRITERION FOR CLOSURE =    0.10000E-04
                                       GCG CONCENTRATION CHANGE PRINTOUT INTERVAL =      999

 SFT1 -- STREAM TRANSPORT PACKAGE, VERSION 1, MAY 2016, INPUT READ FROM UNIT 19
 NUMBER OF STREAMS =    40
 MAXIMUM NUMBER OF STREAM BOUNDARY CONDITIONS =     0
 STREAM-FLOW OBSERVATION OUTPUT  WILL BE SAVED IN UNIT:1001
 TRANSIENT SFR FLOW SOLUTION IS USED; MASS WILL BE CONSERVED
 MASS DOES NOT EXIT VIA STREAM ET


 STREAM INPUT PARAMETERS
 -----------------------

 STREAM SOLVER OPTION =     1
   1 = FINITE DIFFERENCE FORMULATION
 STREAM SOLVER TIME WEIGHTING FACTOR =  0.50000    
   0.0 = EXPLICIT SCHEME IS USED
   0.5 = CRANK-NICOLSON SCHEME IS USED
   1.0 = FULLY IMPLICIT SCHEME IS USED
 STREAM SOLVER SPACE WEIGHTING FACTOR =   1.0000    
   0.0 = CENTRAL-IN-SPACE WEIGHTING
   1.0 = UPSTREAM WEIGHTING
 CLOSURE CRITERION FOR SFT SOLVER =  0.10000E-05
 MAXIMUM NUMBER OF SFR ITERATIONS =    10
 COURANT CONSTRAINT FOR SFR TIME-STEP =   1.0000    
 PRINT OPTION FOR xMD SOLVER =            0

 OPENING FILE ON UNIT   99:
 .\coldsf.ref                                                                                                                                                                                            



           STRM INIT CONC COMP# 001
 READING ON UNIT   99 WITH FORMAT: (40E15.6)           

 OPENING FILE ON UNIT   99:
 .\dispsf.ref                                                                                                                                                                                            



           DISP COEF L2/T COMP# 001
 READING ON UNIT   99 WITH FORMAT: (40E15.6)           


                                   ++++++++++++++++++++++++++++++++++++++++++++++++++++++++++++++
                                                       STRESS PERIOD NO.  001
                                   ++++++++++++++++++++++++++++++++++++++++++++++++++++++++++++++


 LENGTH OF CURRENT STRESS PERIOD =   3650.000    
 NUMBER OF TIME STEPS FOR CURRENT STRESS PERIOD =    1
 TIME STEP MULTIPLIER USED IN FLOW SOLUTION =   1.000000    

 ***Type of Transport Simulation is TRANSIENT

 USER-SPECIFIED TRANSPORT STEPSIZE =   0.000000    D   
 MAXIMUM NUMBER OF TRANSPORT STEPS ALLOWED  IN ONE FLOW TIME STEP =     50000
 MULTIPLIER FOR SUCCESSIVE TRANSPORT STEPS  [USED IN IMPLICIT SCHEMES] =     1.000
 MAXIMUM TRANSPORT STEP SIZE  [USED IN IMPLICIT SCHEMES] =   0.000000    D   

 CONCENTRATION OF RECHARGE FLUXES WILL BE READ IN STRESS PERIOD  1



           RECH. CONC. COMP.  01   
 READING ON UNIT 2011 WITH FORMAT:           (20e15.6) 

       NO    LAYER   ROW   COLUMN   CONCENTRATION       TYPE            COMPONENT
       1       1       1       1       1.000000         MASS LOADING        1
       2       1       1       2       1.000000         MASS LOADING        1
       3       1       1       3       1.000000         MASS LOADING        1
       4       1       1       4       1.000000         MASS LOADING        1
       5       1       1       5       1.000000         MASS LOADING        1
       6       1       1       6       1.000000         MASS LOADING        1
       7       1       1       7       1.000000         MASS LOADING        1
       8       1       1       8       1.000000         MASS LOADING        1
       9       1       1       9       1.000000         MASS LOADING        1
      10       1       1      10       1.000000         MASS LOADING        1
      11       1       1      11       1.000000         MASS LOADING        1
      12       1       1      12       1.000000         MASS LOADING        1
      13       1       1      13       1.000000         MASS LOADING        1
      14       1       1      14       1.000000         MASS LOADING        1
      15       1       1      15       1.000000         MASS LOADING        1
      16       1       1      16       1.000000         MASS LOADING        1
      17       1       1      17       1.000000         MASS LOADING        1
      18       1       1      18       1.000000         MASS LOADING        1
      19       1       1      19       1.000000         MASS LOADING        1
      20       1       1      20       1.000000         MASS LOADING        1
      21       1       2       1       1.000000         MASS LOADING        1
      22       1       2       2       1.000000         MASS LOADING        1
      23       1       2       3       1.000000         MASS LOADING        1
      24       1       2       4       1.000000         MASS LOADING        1
      25       1       2       5       1.000000         MASS LOADING        1
      26       1       2       6       1.000000         MASS LOADING        1
      27       1       2       7       1.000000         MASS LOADING        1
      28       1       2       8       1.000000         MASS LOADING        1
      29       1       2       9       1.000000         MASS LOADING        1
      30       1       2      10       1.000000         MASS LOADING        1
      31       1       2      11       1.000000         MASS LOADING        1
      32       1       2      12       1.000000         MASS LOADING        1
      33       1       2      13       1.000000         MASS LOADING        1
      34       1       2      14       1.000000         MASS LOADING        1
      35       1       2      15       1.000000         MASS LOADING        1
      36       1       2      16       1.000000         MASS LOADING        1
      37       1       2      17       1.000000         MASS LOADING        1
      38       1       2      18       1.000000         MASS LOADING        1
      39       1       2      19       1.000000         MASS LOADING        1
      40       1       2      20       1.000000         MASS LOADING        1
      41       1       3       1       1.000000         MASS LOADING        1
      42       1       3       2       1.000000         MASS LOADING        1
      43       1       3       3       1.000000         MASS LOADING        1
      44       1       3       4       1.000000         MASS LOADING        1
      45       1       3       5       1.000000         MASS LOADING        1
      46       1       3       6       1.000000         MASS LOADING        1
      47       1       3       7       1.000000         MASS LOADING        1
      48       1       3       8       1.000000         MASS LOADING        1
      49       1       3       9       1.000000         MASS LOADING        1
      50       1       3      10       1.000000         MASS LOADING        1
      51       1       3      11       1.000000         MASS LOADING        1
      52       1       3      12       1.000000         MASS LOADING        1
      53       1       3      13       1.000000         MASS LOADING        1
      54       1       3      14       1.000000         MASS LOADING        1
      55       1       3      15       1.000000         MASS LOADING        1
      56       1       3      16       1.000000         MASS LOADING        1
      57       1       3      17       1.000000         MASS LOADING        1
      58       1       3      18       1.000000         MASS LOADING        1
      59       1       3      19       1.000000         MASS LOADING        1
      60       1       3      20       1.000000         MASS LOADING        1
      61       1       4       1       1.000000         MASS LOADING        1
      62       1       4       2       1.000000         MASS LOADING        1
      63       1       4       3       1.000000         MASS LOADING        1
      64       1       4       4       1.000000         MASS LOADING        1
      65       1       4       5       1.000000         MASS LOADING        1
      66       1       4       6       1.000000         MASS LOADING        1
      67       1       4       7       1.000000         MASS LOADING        1
      68       1       4       8       1.000000         MASS LOADING        1
      69       1       4       9       1.000000         MASS LOADING        1
      70       1       4      10       1.000000         MASS LOADING        1
      71       1       4      11       1.000000         MASS LOADING        1
      72       1       4      12       1.000000         MASS LOADING        1
      73       1       4      13       1.000000         MASS LOADING        1
      74       1       4      14       1.000000         MASS LOADING        1
      75       1       4      15       1.000000         MASS LOADING        1
      76       1       4      16       1.000000         MASS LOADING        1
      77       1       4      17       1.000000         MASS LOADING        1
      78       1       4      18       1.000000         MASS LOADING        1
      79       1       4      19       1.000000         MASS LOADING        1
      80       1       4      20       1.000000         MASS LOADING        1
      81       1       5       1       1.000000         MASS LOADING        1
      82       1       5       2       1.000000         MASS LOADING        1
      83       1       5       3       1.000000         MASS LOADING        1
      84       1       5       4       1.000000         MASS LOADING        1
      85       1       5       5       1.000000         MASS LOADING        1
      86       1       5       6       1.000000         MASS LOADING        1
      87       1       5       7       1.000000         MASS LOADING        1
      88       1       5       8       1.000000         MASS LOADING        1
      89       1       5       9       1.000000         MASS LOADING        1
      90       1       5      10       1.000000         MASS LOADING        1
      91       1       5      11       1.000000         MASS LOADING        1
      92       1       5      12       1.000000         MASS LOADING        1
      93       1       5      13       1.000000         MASS LOADING        1
      94       1       5      14       1.000000         MASS LOADING        1
      95       1       5      15       1.000000         MASS LOADING        1
      96       1       5      16       1.000000         MASS LOADING        1
      97       1       5      17       1.000000         MASS LOADING        1
      98       1       5      18       1.000000         MASS LOADING        1
      99       1       5      19       1.000000         MASS LOADING        1
     100       1       5      20       1.000000         MASS LOADING        1
     101       1       6       1       1.000000         MASS LOADING        1
     102       1       6       2       1.000000         MASS LOADING        1
     103       1       6       3       1.000000         MASS LOADING        1
     104       1       6       4       1.000000         MASS LOADING        1
     105       1       6       5       1.000000         MASS LOADING        1
     106       1       6       6       1.000000         MASS LOADING        1
     107       1       6       7       1.000000         MASS LOADING        1
     108       1       6       8       1.000000         MASS LOADING        1
     109       1       6       9       1.000000         MASS LOADING        1
     110       1       6      10       1.000000         MASS LOADING        1
     111       1       6      11       1.000000         MASS LOADING        1
     112       1       6      12       1.000000         MASS LOADING        1
     113       1       6      13       1.000000         MASS LOADING        1
     114       1       6      14       1.000000         MASS LOADING        1
     115       1       6      15       1.000000         MASS LOADING        1
     116       1       6      16       1.000000         MASS LOADING        1
     117       1       6      17       1.000000         MASS LOADING        1
     118       1       6      18       1.000000         MASS LOADING        1
     119       1       6      19       1.000000         MASS LOADING        1
     120       1       6      20       1.000000         MASS LOADING        1
     121       1       7       1       1.000000         MASS LOADING        1
     122       1       7       2       1.000000         MASS LOADING        1
     123       1       7       3       1.000000         MASS LOADING        1
     124       1       7       4       1.000000         MASS LOADING        1
     125       1       7       5       1.000000         MASS LOADING        1
     126       1       7       6       1.000000         MASS LOADING        1
     127       1       7       7       1.000000         MASS LOADING        1
     128       1       7       8       1.000000         MASS LOADING        1
     129       1       7       9       1.000000         MASS LOADING        1
     130       1       7      10       1.000000         MASS LOADING        1
     131       1       7      11       1.000000         MASS LOADING        1
     132       1       7      12       1.000000         MASS LOADING        1
     133       1       7      13       1.000000         MASS LOADING        1
     134       1       7      14       1.000000         MASS LOADING        1
     135       1       7      15       1.000000         MASS LOADING        1
     136       1       7      16       1.000000         MASS LOADING        1
     137       1       7      17       1.000000         MASS LOADING        1
     138       1       7      18       1.000000         MASS LOADING        1
     139       1       7      19       1.000000         MASS LOADING        1
     140       1       7      20       1.000000         MASS LOADING        1
     141       1       8       1       1.000000         MASS LOADING        1
     142       1       8       2       1.000000         MASS LOADING        1
     143       1       8       3       1.000000         MASS LOADING        1
     144       1       8       4       1.000000         MASS LOADING        1
     145       1       8       5       1.000000         MASS LOADING        1
     146       1       8       6       1.000000         MASS LOADING        1
     147       1       8       7       1.000000         MASS LOADING        1
     148       1       8       8       1.000000         MASS LOADING        1
     149       1       8       9       1.000000         MASS LOADING        1
     150       1       8      10       1.000000         MASS LOADING        1
     151       1       8      11       1.000000         MASS LOADING        1
     152       1       8      12       1.000000         MASS LOADING        1
     153       1       8      13       1.000000         MASS LOADING        1
     154       1       8      14       1.000000         MASS LOADING        1
     155       1       8      15       1.000000         MASS LOADING        1
     156       1       8      16       1.000000         MASS LOADING        1
     157       1       8      17       1.000000         MASS LOADING        1
     158       1       8      18       1.000000         MASS LOADING        1
     159       1       8      19       1.000000         MASS LOADING        1
     160       1       8      20       1.000000         MASS LOADING        1
     161       1       9       1       1.000000         MASS LOADING        1
     162       1       9       2       1.000000         MASS LOADING        1
     163       1       9       3       1.000000         MASS LOADING        1
     164       1       9       4       1.000000         MASS LOADING        1
     165       1       9       8       1.000000         MASS LOADING        1
     166       1       9       9       1.000000         MASS LOADING        1
     167       1       9      10       1.000000         MASS LOADING        1
     168       1       9      11       1.000000         MASS LOADING        1
     169       1       9      12       1.000000         MASS LOADING        1
     170       1       9      13       1.000000         MASS LOADING        1
     171       1       9      14       1.000000         MASS LOADING        1
     172       1       9      15       1.000000         MASS LOADING        1
     173       1       9      16       1.000000         MASS LOADING        1
     174       1       9      17       1.000000         MASS LOADING        1
     175       1       9      18       1.000000         MASS LOADING        1
     176       1       9      19       1.000000         MASS LOADING        1
     177       1       9      20       1.000000         MASS LOADING        1
     178       1      10       1       1.000000         MASS LOADING        1
     179       1      10       2       1.000000         MASS LOADING        1
     180       1      10       3       1.000000         MASS LOADING        1
     181       1      10       4       1.000000         MASS LOADING        1
     182       1      10       9       1.000000         MASS LOADING        1
     183       1      10      10       1.000000         MASS LOADING        1
     184       1      10      11       1.000000         MASS LOADING        1
     185       1      10      12       1.000000         MASS LOADING        1
     186       1      10      13       1.000000         MASS LOADING        1
     187       1      10      14       1.000000         MASS LOADING        1
     188       1      10      15       1.000000         MASS LOADING        1
     189       1      10      16       1.000000         MASS LOADING        1
     190       1      10      17       1.000000         MASS LOADING        1
     191       1      10      18       1.000000         MASS LOADING        1
     192       1      10      19       1.000000         MASS LOADING        1
     193       1      10      20       1.000000         MASS LOADING        1
     194       1      11       1       1.000000         MASS LOADING        1
     195       1      11       2       1.000000         MASS LOADING        1
     196       1      11       3       1.000000         MASS LOADING        1
     197       1      11       4       1.000000         MASS LOADING        1
     198       1      11       9       1.000000         MASS LOADING        1
     199       1      11      10       1.000000         MASS LOADING        1
     200       1      11      11       1.000000         MASS LOADING        1
     201       1      11      12       1.000000         MASS LOADING        1
     202       1      11      13       1.000000         MASS LOADING        1
     203       1      11      14       1.000000         MASS LOADING        1
     204       1      11      15       1.000000         MASS LOADING        1
     205       1      11      16       1.000000         MASS LOADING        1
     206       1      11      17       1.000000         MASS LOADING        1
     207       1      11      18       1.000000         MASS LOADING        1
     208       1      11      19       1.000000         MASS LOADING        1
     209       1      11      20       1.000000         MASS LOADING        1
     210       1      12       1       1.000000         MASS LOADING        1
     211       1      12       2       1.000000         MASS LOADING        1
     212       1      12       3       1.000000         MASS LOADING        1
     213       1      12       4       1.000000         MASS LOADING        1
     214       1      12       9       1.000000         MASS LOADING        1
     215       1      12      10       1.000000         MASS LOADING        1
     216       1      12      11       1.000000         MASS LOADING        1
     217       1      12      12       1.000000         MASS LOADING        1
     218       1      12      13       1.000000         MASS LOADING        1
     219       1      12      14       1.000000         MASS LOADING        1
     220       1      12      15       1.000000         MASS LOADING        1
     221       1      12      16       1.000000         MASS LOADING        1
     222       1      12      17       1.000000         MASS LOADING        1
     223       1      12      18       1.000000         MASS LOADING        1
     224       1      12      19       1.000000         MASS LOADING        1
     225       1      12      20       1.000000         MASS LOADING        1
     226       1      13       1       1.000000         MASS LOADING        1
     227       1      13       2       1.000000         MASS LOADING        1
     228       1      13       3       1.000000         MASS LOADING        1
     229       1      13       4       1.000000         MASS LOADING        1
     230       1      13       9       1.000000         MASS LOADING        1
     231       1      13      10       1.000000         MASS LOADING        1
     232       1      13      11       1.000000         MASS LOADING        1
     233       1      13      12       1.000000         MASS LOADING        1
     234       1      13      13       1.000000         MASS LOADING        1
     235       1      13      14       1.000000         MASS LOADING        1
     236       1      13      15       1.000000         MASS LOADING        1
     237       1      13      16       1.000000         MASS LOADING        1
     238       1      13      17       1.000000         MASS LOADING        1
     239       1      13      18       1.000000         MASS LOADING        1
     240       1      13      19       1.000000         MASS LOADING        1
     241       1      13      20       1.000000         MASS LOADING        1
     242       1      14       1       1.000000         MASS LOADING        1
     243       1      14       2       1.000000         MASS LOADING        1
     244       1      14       3       1.000000         MASS LOADING        1
     245       1      14       4       1.000000         MASS LOADING        1
     246       1      14       9       1.000000         MASS LOADING        1
     247       1      14      10       1.000000         MASS LOADING        1
     248       1      14      11       1.000000         MASS LOADING        1
     249       1      14      12       1.000000         MASS LOADING        1
     250       1      14      13       1.000000         MASS LOADING        1
     251       1      14      14       1.000000         MASS LOADING        1
     252       1      14      15       1.000000         MASS LOADING        1
     253       1      14      16       1.000000         MASS LOADING        1
     254       1      14      17       1.000000         MASS LOADING        1
     255       1      14      18       1.000000         MASS LOADING        1
     256       1      14      19       1.000000         MASS LOADING        1
     257       1      14      20       1.000000         MASS LOADING        1
     258       1      15       1       1.000000         MASS LOADING        1
     259       1      15       2       1.000000         MASS LOADING        1
     260       1      15       3       1.000000         MASS LOADING        1
     261       1      15       4       1.000000         MASS LOADING        1
     262       1      15       9       1.000000         MASS LOADING        1
     263       1      15      10       1.000000         MASS LOADING        1
     264       1      15      11       1.000000         MASS LOADING        1
     265       1      15      12       1.000000         MASS LOADING        1
     266       1      15      13       1.000000         MASS LOADING        1
     267       1      15      14       1.000000         MASS LOADING        1
     268       1      15      15       1.000000         MASS LOADING        1
     269       1      15      16       1.000000         MASS LOADING        1
     270       1      15      17       1.000000         MASS LOADING        1
     271       1      15      18       1.000000         MASS LOADING        1
     272       1      15      19       1.000000         MASS LOADING        1
     273       1      15      20       1.000000         MASS LOADING        1
     274       1      16       1       1.000000         MASS LOADING        1
     275       1      16       2       1.000000         MASS LOADING        1
     276       1      16       3       1.000000         MASS LOADING        1
     277       1      16       4       1.000000         MASS LOADING        1
     278       1      16       9       1.000000         MASS LOADING        1
     279       1      16      10       1.000000         MASS LOADING        1
     280       1      16      11       1.000000         MASS LOADING        1
     281       1      16      12       1.000000         MASS LOADING        1
     282       1      16      13       1.000000         MASS LOADING        1
     283       1      16      14       1.000000         MASS LOADING        1
     284       1      16      15       1.000000         MASS LOADING        1
     285       1      16      16       1.000000         MASS LOADING        1
     286       1      16      17       1.000000         MASS LOADING        1
     287       1      16      18       1.000000         MASS LOADING        1
     288       1      16      19       1.000000         MASS LOADING        1
     289       1      16      20       1.000000         MASS LOADING        1
     290       1      17       1       1.000000         MASS LOADING        1
     291       1      17       2       1.000000         MASS LOADING        1
     292       1      17       3       1.000000         MASS LOADING        1
     293       1      17       4       1.000000         MASS LOADING        1
     294       1      17       9       1.000000         MASS LOADING        1
     295       1      17      10       1.000000         MASS LOADING        1
     296       1      17      11       1.000000         MASS LOADING        1
     297       1      17      12       1.000000         MASS LOADING        1
     298       1      17      13       1.000000         MASS LOADING        1
     299       1      17      14       1.000000         MASS LOADING        1
     300       1      17      15       1.000000         MASS LOADING        1
     301       1      17      16       1.000000         MASS LOADING        1
     302       1      17      17       1.000000         MASS LOADING        1
     303       1      17      18       1.000000         MASS LOADING        1
     304       1      17      19       1.000000         MASS LOADING        1
     305       1      17      20       1.000000         MASS LOADING        1
     306       1      18       1       1.000000         MASS LOADING        1
     307       1      18       2       1.000000         MASS LOADING        1
     308       1      18       3       1.000000         MASS LOADING        1
     309       1      18       4       1.000000         MASS LOADING        1
     310       1      18       9       1.000000         MASS LOADING        1
     311       1      18      10       1.000000         MASS LOADING        1
     312       1      18      11       1.000000         MASS LOADING        1
     313       1      18      12       1.000000         MASS LOADING        1
     314       1      18      13       1.000000         MASS LOADING        1
     315       1      18      14       1.000000         MASS LOADING        1
     316       1      18      15       1.000000         MASS LOADING        1
     317       1      18      16       1.000000         MASS LOADING        1
     318       1      18      17       1.000000         MASS LOADING        1
     319       1      18      18       1.000000         MASS LOADING        1
     320       1      18      19       1.000000         MASS LOADING        1
     321       1      18      20       1.000000         MASS LOADING        1
     322       1      19       1       1.000000         MASS LOADING        1
     323       1      19       2       1.000000         MASS LOADING        1
     324       1      19       3       1.000000         MASS LOADING        1
     325       1      19       4       1.000000         MASS LOADING        1
     326       1      19       9       1.000000         MASS LOADING        1
     327       1      19      10       1.000000         MASS LOADING        1
     328       1      19      11       1.000000         MASS LOADING        1
     329       1      19      12       1.000000         MASS LOADING        1
     330       1      19      13       1.000000         MASS LOADING        1
     331       1      19      14       1.000000         MASS LOADING        1
     332       1      19      15       1.000000         MASS LOADING        1
     333       1      19      16       1.000000         MASS LOADING        1
     334       1      19      17       1.000000         MASS LOADING        1
     335       1      19      18       1.000000         MASS LOADING        1
     336       1      19      19       1.000000         MASS LOADING        1
     337       1      19      20       1.000000         MASS LOADING        1
     338       1      20       1       1.000000         MASS LOADING        1
     339       1      20       2       1.000000         MASS LOADING        1
     340       1      20       3       1.000000         MASS LOADING        1
     341       1      20       4       1.000000         MASS LOADING        1
     342       1      20       9       1.000000         MASS LOADING        1
     343       1      20      10       1.000000         MASS LOADING        1
     344       1      20      11       1.000000         MASS LOADING        1
     345       1      20      12       1.000000         MASS LOADING        1
     346       1      20      13       1.000000         MASS LOADING        1
     347       1      20      14       1.000000         MASS LOADING        1
     348       1      20      15       1.000000         MASS LOADING        1
     349       1      20      16       1.000000         MASS LOADING        1
     350       1      20      17       1.000000         MASS LOADING        1
     351       1      20      18       1.000000         MASS LOADING        1
     352       1      20      19       1.000000         MASS LOADING        1
     353       1      20      20       1.000000         MASS LOADING        1
     354       1      21       1       1.000000         MASS LOADING        1
     355       1      21       2       1.000000         MASS LOADING        1
     356       1      21       3       1.000000         MASS LOADING        1
     357       1      21       4       1.000000         MASS LOADING        1
     358       1      21       9       1.000000         MASS LOADING        1
     359       1      21      10       1.000000         MASS LOADING        1
     360       1      21      11       1.000000         MASS LOADING        1
     361       1      21      12       1.000000         MASS LOADING        1
     362       1      21      13       1.000000         MASS LOADING        1
     363       1      21      14       1.000000         MASS LOADING        1
     364       1      21      15       1.000000         MASS LOADING        1
     365       1      21      16       1.000000         MASS LOADING        1
     366       1      21      17       1.000000         MASS LOADING        1
     367       1      21      18       1.000000         MASS LOADING        1
     368       1      21      19       1.000000         MASS LOADING        1
     369       1      21      20       1.000000         MASS LOADING        1
     370       1      22       1       1.000000         MASS LOADING        1
     371       1      22       2       1.000000         MASS LOADING        1
     372       1      22       3       1.000000         MASS LOADING        1
     373       1      22       4       1.000000         MASS LOADING        1
     374       1      22       7       1.000000         MASS LOADING        1
     375       1      22       8       1.000000         MASS LOADING        1
     376       1      22       9       1.000000         MASS LOADING        1
     377       1      22      10       1.000000         MASS LOADING        1
     378       1      22      11       1.000000         MASS LOADING        1
     379       1      22      12       1.000000         MASS LOADING        1
     380       1      22      13       1.000000         MASS LOADING        1
     381       1      22      14       1.000000         MASS LOADING        1
     382       1      22      15       1.000000         MASS LOADING        1
     383       1      22      16       1.000000         MASS LOADING        1
     384       1      22      17       1.000000         MASS LOADING        1
     385       1      22      18       1.000000         MASS LOADING        1
     386       1      22      19       1.000000         MASS LOADING        1
     387       1      22      20       1.000000         MASS LOADING        1
     388       1      23       1       1.000000         MASS LOADING        1
     389       1      23       2       1.000000         MASS LOADING        1
     390       1      23       3       1.000000         MASS LOADING        1
     391       1      23       4       1.000000         MASS LOADING        1
     392       1      23       5       1.000000         MASS LOADING        1
     393       1      23       7       1.000000         MASS LOADING        1
     394       1      23       8       1.000000         MASS LOADING        1
     395       1      23       9       1.000000         MASS LOADING        1
     396       1      23      10       1.000000         MASS LOADING        1
     397       1      23      11       1.000000         MASS LOADING        1
     398       1      23      12       1.000000         MASS LOADING        1
     399       1      23      13       1.000000         MASS LOADING        1
     400       1      23      14       1.000000         MASS LOADING        1
     401       1      23      15       1.000000         MASS LOADING        1
     402       1      23      16       1.000000         MASS LOADING        1
     403       1      23      17       1.000000         MASS LOADING        1
     404       1      23      18       1.000000         MASS LOADING        1
     405       1      23      19       1.000000         MASS LOADING        1
     406       1      23      20       1.000000         MASS LOADING        1
     407       1      24       1       1.000000         MASS LOADING        1
     408       1      24       2       1.000000         MASS LOADING        1
     409       1      24       3       1.000000         MASS LOADING        1
     410       1      24       4       1.000000         MASS LOADING        1
     411       1      24       5       1.000000         MASS LOADING        1
     412       1      24       6       1.000000         MASS LOADING        1
     413       1      24       7       1.000000         MASS LOADING        1
     414       1      24       8       1.000000         MASS LOADING        1
     415       1      24       9       1.000000         MASS LOADING        1
     416       1      24      10       1.000000         MASS LOADING        1
     417       1      24      11       1.000000         MASS LOADING        1
     418       1      24      12       1.000000         MASS LOADING        1
     419       1      24      13       1.000000         MASS LOADING        1
     420       1      24      14       1.000000         MASS LOADING        1
     421       1      24      15       1.000000         MASS LOADING        1
     422       1      24      16       1.000000         MASS LOADING        1
     423       1      24      17       1.000000         MASS LOADING        1
     424       1      24      18       1.000000         MASS LOADING        1
     425       1      24      19       1.000000         MASS LOADING        1
     426       1      24      20       1.000000         MASS LOADING        1
     427       1      25       1       1.000000         MASS LOADING        1
     428       1      25       2       1.000000         MASS LOADING        1
     429       1      25       3       1.000000         MASS LOADING        1
     430       1      25       4       1.000000         MASS LOADING        1
     431       1      25       5       1.000000         MASS LOADING        1
     432       1      25       6       1.000000         MASS LOADING        1
     433       1      25       7       1.000000         MASS LOADING        1
     434       1      25       8       1.000000         MASS LOADING        1
     435       1      25       9       1.000000         MASS LOADING        1
     436       1      25      10       1.000000         MASS LOADING        1
     437       1      25      11       1.000000         MASS LOADING        1
     438       1      25      12       1.000000         MASS LOADING        1
     439       1      25      13       1.000000         MASS LOADING        1
     440       1      25      14       1.000000         MASS LOADING        1
     441       1      25      15       1.000000         MASS LOADING        1
     442       1      25      16       1.000000         MASS LOADING        1
     443       1      25      17       1.000000         MASS LOADING        1
     444       1      25      18       1.000000         MASS LOADING        1
     445       1      25      19       1.000000         MASS LOADING        1
     446       1      25      20       1.000000         MASS LOADING        1
     447       1      26       1       1.000000         MASS LOADING        1
     448       1      26       2       1.000000         MASS LOADING        1
     449       1      26       3       1.000000         MASS LOADING        1
     450       1      26       4       1.000000         MASS LOADING        1
     451       1      26       5       1.000000         MASS LOADING        1
     452       1      26       6       1.000000         MASS LOADING        1
     453       1      26       7       1.000000         MASS LOADING        1
     454       1      26       8       1.000000         MASS LOADING        1
     455       1      26       9       1.000000         MASS LOADING        1
     456       1      26      10       1.000000         MASS LOADING        1
     457       1      26      11       1.000000         MASS LOADING        1
     458       1      26      12       1.000000         MASS LOADING        1
     459       1      26      13       1.000000         MASS LOADING        1
     460       1      26      14       1.000000         MASS LOADING        1
     461       1      26      15       1.000000         MASS LOADING        1
     462       1      26      16       1.000000         MASS LOADING        1
     463       1      26      17       1.000000         MASS LOADING        1
     464       1      26      18       1.000000         MASS LOADING        1
     465       1      26      19       1.000000         MASS LOADING        1
     466       1      26      20       1.000000         MASS LOADING        1
     467       1      27       1       1.000000         MASS LOADING        1
     468       1      27       2       1.000000         MASS LOADING        1
     469       1      27       3       1.000000         MASS LOADING        1
     470       1      27       4       1.000000         MASS LOADING        1
     471       1      27       5       1.000000         MASS LOADING        1
     472       1      27       6       1.000000         MASS LOADING        1
     473       1      27       7       1.000000         MASS LOADING        1
     474       1      27       8       1.000000         MASS LOADING        1
     475       1      27       9       1.000000         MASS LOADING        1
     476       1      27      10       1.000000         MASS LOADING        1
     477       1      27      11       1.000000         MASS LOADING        1
     478       1      27      12       1.000000         MASS LOADING        1
     479       1      27      13       1.000000         MASS LOADING        1
     480       1      27      14       1.000000         MASS LOADING        1
     481       1      27      15       1.000000         MASS LOADING        1
     482       1      27      16       1.000000         MASS LOADING        1
     483       1      27      17       1.000000         MASS LOADING        1
     484       1      27      18       1.000000         MASS LOADING        1
     485       1      27      19       1.000000         MASS LOADING        1
     486       1      27      20       1.000000         MASS LOADING        1
     487       1      28       1       1.000000         MASS LOADING        1
     488       1      28       2       1.000000         MASS LOADING        1
     489       1      28       3       1.000000         MASS LOADING        1
     490       1      28       4       1.000000         MASS LOADING        1
     491       1      28       5       1.000000         MASS LOADING        1
     492       1      28       6       1.000000         MASS LOADING        1
     493       1      28       7       1.000000         MASS LOADING        1
     494       1      28       8       1.000000         MASS LOADING        1
     495       1      28       9       1.000000         MASS LOADING        1
     496       1      28      10       1.000000         MASS LOADING        1
     497       1      28      11       1.000000         MASS LOADING        1
     498       1      28      12       1.000000         MASS LOADING        1
     499       1      28      13       1.000000         MASS LOADING        1
     500       1      28      14       1.000000         MASS LOADING        1
     501       1      28      15       1.000000         MASS LOADING        1
     502       1      28      16       1.000000         MASS LOADING        1
     503       1      28      17       1.000000         MASS LOADING        1
     504       1      28      18       1.000000         MASS LOADING        1
     505       1      28      19       1.000000         MASS LOADING        1
     506       1      28      20       1.000000         MASS LOADING        1
     507       1      29       1       1.000000         MASS LOADING        1
     508       1      29       2       1.000000         MASS LOADING        1
     509       1      29       3       1.000000         MASS LOADING        1
     510       1      29       4       1.000000         MASS LOADING        1
     511       1      29       5       1.000000         MASS LOADING        1
     512       1      29       6       1.000000         MASS LOADING        1
     513       1      29       7       1.000000         MASS LOADING        1
     514       1      29       8       1.000000         MASS LOADING        1
     515       1      29       9       1.000000         MASS LOADING        1
     516       1      29      10       1.000000         MASS LOADING        1
     517       1      29      11       1.000000         MASS LOADING        1
     518       1      29      12       1.000000         MASS LOADING        1
     519       1      29      13       1.000000         MASS LOADING        1
     520       1      29      14       1.000000         MASS LOADING        1
     521       1      29      15       1.000000         MASS LOADING        1
     522       1      29      16       1.000000         MASS LOADING        1
     523       1      29      17       1.000000         MASS LOADING        1
     524       1      29      18       1.000000         MASS LOADING        1
     525       1      29      19       1.000000         MASS LOADING        1
     526       1      29      20       1.000000         MASS LOADING        1
     527       1      30       1       1.000000         MASS LOADING        1
     528       1      30       2       1.000000         MASS LOADING        1
     529       1      30       3       1.000000         MASS LOADING        1
     530       1      30       4       1.000000         MASS LOADING        1
     531       1      30       5       1.000000         MASS LOADING        1
     532       1      30       6       1.000000         MASS LOADING        1
     533       1      30       7       1.000000         MASS LOADING        1
     534       1      30       8       1.000000         MASS LOADING        1
     535       1      30       9       1.000000         MASS LOADING        1
     536       1      30      10       1.000000         MASS LOADING        1
     537       1      30      11       1.000000         MASS LOADING        1
     538       1      30      12       1.000000         MASS LOADING        1
     539       1      30      13       1.000000         MASS LOADING        1
     540       1      30      14       1.000000         MASS LOADING        1
     541       1      30      15       1.000000         MASS LOADING        1
     542       1      30      16       1.000000         MASS LOADING        1
     543       1      30      17       1.000000         MASS LOADING        1
     544       1      30      18       1.000000         MASS LOADING        1
     545       1      30      19       1.000000         MASS LOADING        1
     546       1      30      20       1.000000         MASS LOADING        1
     547       1      31       1       1.000000         MASS LOADING        1
     548       1      31       2       1.000000         MASS LOADING        1
     549       1      31       3       1.000000         MASS LOADING        1
     550       1      31       4       1.000000         MASS LOADING        1
     551       1      31       5       1.000000         MASS LOADING        1
     552       1      31       6       1.000000         MASS LOADING        1
     553       1      31       7       1.000000         MASS LOADING        1
     554       1      31       8       1.000000         MASS LOADING        1
     555       1      31       9       1.000000         MASS LOADING        1
     556       1      31      10       1.000000         MASS LOADING        1
     557       1      31      11       1.000000         MASS LOADING        1
     558       1      31      12       1.000000         MASS LOADING        1
     559       1      31      13       1.000000         MASS LOADING        1
     560       1      31      14       1.000000         MASS LOADING        1
     561       1      31      15       1.000000         MASS LOADING        1
     562       1      31      16       1.000000         MASS LOADING        1
     563       1      31      17       1.000000         MASS LOADING        1
     564       1      31      18       1.000000         MASS LOADING        1
     565       1      31      19       1.000000         MASS LOADING        1
     566       1      31      20       1.000000         MASS LOADING        1
     567       1      32       1       1.000000         MASS LOADING        1
     568       1      32       2       1.000000         MASS LOADING        1
     569       1      32       3       1.000000         MASS LOADING        1
     570       1      32       4       1.000000         MASS LOADING        1
     571       1      32       5       1.000000         MASS LOADING        1
     572       1      32       6       1.000000         MASS LOADING        1
     573       1      32       7       1.000000         MASS LOADING        1
     574       1      32       8       1.000000         MASS LOADING        1
     575       1      32       9       1.000000         MASS LOADING        1
     576       1      32      10       1.000000         MASS LOADING        1
     577       1      32      11       1.000000         MASS LOADING        1
     578       1      32      12       1.000000         MASS LOADING        1
     579       1      32      13       1.000000         MASS LOADING        1
     580       1      32      14       1.000000         MASS LOADING        1
     581       1      32      15       1.000000         MASS LOADING        1
     582       1      32      16       1.000000         MASS LOADING        1
     583       1      32      17       1.000000         MASS LOADING        1
     584       1      32      18       1.000000         MASS LOADING        1
     585       1      32      19       1.000000         MASS LOADING        1
     586       1      32      20       1.000000         MASS LOADING        1
     587       1      33       2       1.000000         MASS LOADING        1
     588       1      33       3       1.000000         MASS LOADING        1
     589       1      33       4       1.000000         MASS LOADING        1
     590       1      33       5       1.000000         MASS LOADING        1
     591       1      33       6       1.000000         MASS LOADING        1
     592       1      33       7       1.000000         MASS LOADING        1
     593       1      33       8       1.000000         MASS LOADING        1
     594       1      33       9       1.000000         MASS LOADING        1
     595       1      33      10       1.000000         MASS LOADING        1
     596       1      33      11       1.000000         MASS LOADING        1
     597       1      33      12       1.000000         MASS LOADING        1
     598       1      33      13       1.000000         MASS LOADING        1
     599       1      33      14       1.000000         MASS LOADING        1
     600       1      33      15       1.000000         MASS LOADING        1
     601       1      33      16       1.000000         MASS LOADING        1
     602       1      33      17       1.000000         MASS LOADING        1
     603       1      33      18       1.000000         MASS LOADING        1
     604       1      33      19       1.000000         MASS LOADING        1
     605       1      33      20       1.000000         MASS LOADING        1
     606       1      34       3       1.000000         MASS LOADING        1
     607       1      34       4       1.000000         MASS LOADING        1
     608       1      34       5       1.000000         MASS LOADING        1
     609       1      34       6       1.000000         MASS LOADING        1
     610       1      34       7       1.000000         MASS LOADING        1
     611       1      34       8       1.000000         MASS LOADING        1
     612       1      34       9       1.000000         MASS LOADING        1
     613       1      34      10       1.000000         MASS LOADING        1
     614       1      34      11       1.000000         MASS LOADING        1
     615       1      34      12       1.000000         MASS LOADING        1
     616       1      34      13       1.000000         MASS LOADING        1
     617       1      34      14       1.000000         MASS LOADING        1
     618       1      34      15       1.000000         MASS LOADING        1
     619       1      34      16       1.000000         MASS LOADING        1
     620       1      34      17       1.000000         MASS LOADING        1
     621       1      34      18       1.000000         MASS LOADING        1
     622       1      34      19       1.000000         MASS LOADING        1
     623       1      34      20       1.000000         MASS LOADING        1
     624       1      35       4       1.000000         MASS LOADING        1
     625       1      35       5       1.000000         MASS LOADING        1
     626       1      35       6       1.000000         MASS LOADING        1
     627       1      35       7       1.000000         MASS LOADING        1
     628       1      35       8       1.000000         MASS LOADING        1
     629       1      35       9       1.000000         MASS LOADING        1
     630       1      35      10       1.000000         MASS LOADING        1
     631       1      35      11       1.000000         MASS LOADING        1
     632       1      35      12       1.000000         MASS LOADING        1
     633       1      35      13       1.000000         MASS LOADING        1
     634       1      35      14       1.000000         MASS LOADING        1
     635       1      35      15       1.000000         MASS LOADING        1
     636       1      35      16       1.000000         MASS LOADING        1
     637       1      35      17       1.000000         MASS LOADING        1
     638       1      35      18       1.000000         MASS LOADING        1
     639       1      35      19       1.000000         MASS LOADING        1
     640       1      35      20       1.000000         MASS LOADING        1
     641       1      36       5       1.000000         MASS LOADING        1
     642       1      36       6       1.000000         MASS LOADING        1
     643       1      36       7       1.000000         MASS LOADING        1
     644       1      36       8       1.000000         MASS LOADING        1
     645       1      36       9       1.000000         MASS LOADING        1
     646       1      36      10       1.000000         MASS LOADING        1
     647       1      36      11       1.000000         MASS LOADING        1
     648       1      36      12       1.000000         MASS LOADING        1
     649       1      36      13       1.000000         MASS LOADING        1
     650       1      36      14       1.000000         MASS LOADING        1
     651       1      36      15       1.000000         MASS LOADING        1
     652       1      36      16       1.000000         MASS LOADING        1
     653       1      36      17       1.000000         MASS LOADING        1
     654       1      36      18       1.000000         MASS LOADING        1
     655       1      36      19       1.000000         MASS LOADING        1
     656       1      37       5       1.000000         MASS LOADING        1
     657       1      37       6       1.000000         MASS LOADING        1
     658       1      37       7       1.000000         MASS LOADING        1
     659       1      37       8       1.000000         MASS LOADING        1
     660       1      37       9       1.000000         MASS LOADING        1
     661       1      37      10       1.000000         MASS LOADING        1
     662       1      37      11       1.000000         MASS LOADING        1
     663       1      37      12       1.000000         MASS LOADING        1
     664       1      37      13       1.000000         MASS LOADING        1
     665       1      37      14       1.000000         MASS LOADING        1
     666       1      37      15       1.000000         MASS LOADING        1
     667       1      37      16       1.000000         MASS LOADING        1
     668       1      37      17       1.000000         MASS LOADING        1
     669       1      37      18       1.000000         MASS LOADING        1
     670       1      37      19       1.000000         MASS LOADING        1
     671       1      38       6       1.000000         MASS LOADING        1
     672       1      38       7       1.000000         MASS LOADING        1
     673       1      38       8       1.000000         MASS LOADING        1
     674       1      38       9       1.000000         MASS LOADING        1
     675       1      38      10       1.000000         MASS LOADING        1
     676       1      38      11       1.000000         MASS LOADING        1
     677       1      38      12       1.000000         MASS LOADING        1
     678       1      38      13       1.000000         MASS LOADING        1
     679       1      38      14       1.000000         MASS LOADING        1
     680       1      38      15       1.000000         MASS LOADING        1
     681       1      38      16       1.000000         MASS LOADING        1
     682       1      38      17       1.000000         MASS LOADING        1
     683       1      38      18       1.000000         MASS LOADING        1
     684       1      39       6       1.000000         MASS LOADING        1
     685       1      39       7       1.000000         MASS LOADING        1
     686       1      39       8       1.000000         MASS LOADING        1
     687       1      39       9       1.000000         MASS LOADING        1
     688       1      39      10       1.000000         MASS LOADING        1
     689       1      39      11       1.000000         MASS LOADING        1
     690       1      39      12       1.000000         MASS LOADING        1
     691       1      39      13       1.000000         MASS LOADING        1
     692       1      39      14       1.000000         MASS LOADING        1
     693       1      39      15       1.000000         MASS LOADING        1
     694       1      39      16       1.000000         MASS LOADING        1
     695       1      39      17       1.000000         MASS LOADING        1
     696       1      40       6       1.000000         MASS LOADING        1
     697       1      40       7       1.000000         MASS LOADING        1
     698       1      40       8       1.000000         MASS LOADING        1
     699       1      40       9       1.000000         MASS LOADING        1
     700       1      40      10       1.000000         MASS LOADING        1
     701       1      40      11       1.000000         MASS LOADING        1
     702       1      40      12       1.000000         MASS LOADING        1
     703       1      40      13       1.000000         MASS LOADING        1
     704       1      40      14       1.000000         MASS LOADING        1
     705       1      40      15       1.000000         MASS LOADING        1


 STREAM BOUNDARY CONDITIONS
 --------------------------


 NO. OF STREAM SINKS/SOURCES OF SPECIFIED CONCONCENTRATIONS =    0 IN STRESS PERIOD  1


                                          ================================================
                                                         TIME STEP NO.  001
                                          ================================================

 FROM TIME =   0.0000     TO    3650.0    


                    "THKSAT          " FLOW TERMS FOR TIME STEP  1, STRESS PERIOD  1 READ UNFORMATTED ON UNIT 10
                    --------------------------------------------------------------------------------------------

                    "QXX             " FLOW TERMS FOR TIME STEP  1, STRESS PERIOD  1 READ UNFORMATTED ON UNIT 10
                    --------------------------------------------------------------------------------------------

                    "QYY             " FLOW TERMS FOR TIME STEP  1, STRESS PERIOD  1 READ UNFORMATTED ON UNIT 10
                    --------------------------------------------------------------------------------------------

                    "STO             " FLOW TERMS FOR TIME STEP  1, STRESS PERIOD  1 READ UNFORMATTED ON UNIT 10
                    --------------------------------------------------------------------------------------------

 MAXIMUM STEPSIZE DURING WHICH ANY PARTICLE CANNOT MOVE MORE THAN ONE CELL
 =  58.63    (WHEN MIN. R.F.=1)  AT K=   1, I=  38, J=   6

 MAXIMUM STEPSIZE WHICH MEETS STABILITY CRITERION OF THE ADVECTION TERM
 (FOR PURE FINITE-DIFFERENCE OPTION, MIXELM=0) 
 =  26.85    (WHEN MIN. R.F.=1)  AT K=   1, I=   9, J=  16

                    "CNH             " FLOW TERMS FOR TIME STEP  1, STRESS PERIOD  1 READ UNFORMATTED ON UNIT 10
                    --------------------------------------------------------------------------------------------

                    "WEL             " FLOW TERMS FOR TIME STEP  1, STRESS PERIOD  1 READ UNFORMATTED ON UNIT 10
                    --------------------------------------------------------------------------------------------

                    "RCH             " FLOW TERMS FOR TIME STEP  1, STRESS PERIOD  1 READ UNFORMATTED ON UNIT 10
                    --------------------------------------------------------------------------------------------

                    "SFR FLOWS TR    " FLOW TERMS FOR TIME STEP  1, STRESS PERIOD  1 READ UNFORMATTED ON UNIT 10
                    --------------------------------------------------------------------------------------------


 TOTAL NUMBER OF POINT SOURCES/SINKS PRESENT IN THE FLOW MODEL =   721

 MAXIMUM STEPSIZE WHICH MEETS STABILITY CRITERION OF THE SINK & SOURCE TERM
 =  814.9    (WHEN MIN. R.F.=1)  AT K=   1, I=   4, J=   3


     3 CALLS TO GCG PACKAGE FOR TRANSPORT TIME STEP     1 IN FLOW TIME STEP     1 STRESS PERIOD     1
      5 TOTAL ITERATIONS
     3 CALLS TO GCG PACKAGE FOR TRANSPORT TIME STEP     2 IN FLOW TIME STEP     1 STRESS PERIOD     1
      5 TOTAL ITERATIONS
     3 CALLS TO GCG PACKAGE FOR TRANSPORT TIME STEP     3 IN FLOW TIME STEP     1 STRESS PERIOD     1
      5 TOTAL ITERATIONS
     3 CALLS TO GCG PACKAGE FOR TRANSPORT TIME STEP     4 IN FLOW TIME STEP     1 STRESS PERIOD     1
      5 TOTAL ITERATIONS
     3 CALLS TO GCG PACKAGE FOR TRANSPORT TIME STEP     5 IN FLOW TIME STEP     1 STRESS PERIOD     1
      5 TOTAL ITERATIONS
     3 CALLS TO GCG PACKAGE FOR TRANSPORT TIME STEP     6 IN FLOW TIME STEP     1 STRESS PERIOD     1
      5 TOTAL ITERATIONS
     3 CALLS TO GCG PACKAGE FOR TRANSPORT TIME STEP     7 IN FLOW TIME STEP     1 STRESS PERIOD     1
      5 TOTAL ITERATIONS
     3 CALLS TO GCG PACKAGE FOR TRANSPORT TIME STEP     8 IN FLOW TIME STEP     1 STRESS PERIOD     1
      5 TOTAL ITERATIONS
     3 CALLS TO GCG PACKAGE FOR TRANSPORT TIME STEP     9 IN FLOW TIME STEP     1 STRESS PERIOD     1
      5 TOTAL ITERATIONS
     3 CALLS TO GCG PACKAGE FOR TRANSPORT TIME STEP    10 IN FLOW TIME STEP     1 STRESS PERIOD     1
      5 TOTAL ITERATIONS
     3 CALLS TO GCG PACKAGE FOR TRANSPORT TIME STEP    11 IN FLOW TIME STEP     1 STRESS PERIOD     1
      5 TOTAL ITERATIONS
     3 CALLS TO GCG PACKAGE FOR TRANSPORT TIME STEP    12 IN FLOW TIME STEP     1 STRESS PERIOD     1
      5 TOTAL ITERATIONS
     3 CALLS TO GCG PACKAGE FOR TRANSPORT TIME STEP    13 IN FLOW TIME STEP     1 STRESS PERIOD     1
      5 TOTAL ITERATIONS
     3 CALLS TO GCG PACKAGE FOR TRANSPORT TIME STEP    14 IN FLOW TIME STEP     1 STRESS PERIOD     1
      5 TOTAL ITERATIONS
     3 CALLS TO GCG PACKAGE FOR TRANSPORT TIME STEP    15 IN FLOW TIME STEP     1 STRESS PERIOD     1
      5 TOTAL ITERATIONS
     3 CALLS TO GCG PACKAGE FOR TRANSPORT TIME STEP    16 IN FLOW TIME STEP     1 STRESS PERIOD     1
      5 TOTAL ITERATIONS
     3 CALLS TO GCG PACKAGE FOR TRANSPORT TIME STEP    17 IN FLOW TIME STEP     1 STRESS PERIOD     1
      5 TOTAL ITERATIONS
     3 CALLS TO GCG PACKAGE FOR TRANSPORT TIME STEP    18 IN FLOW TIME STEP     1 STRESS PERIOD     1
      5 TOTAL ITERATIONS
     3 CALLS TO GCG PACKAGE FOR TRANSPORT TIME STEP    19 IN FLOW TIME STEP     1 STRESS PERIOD     1
      5 TOTAL ITERATIONS
     3 CALLS TO GCG PACKAGE FOR TRANSPORT TIME STEP    20 IN FLOW TIME STEP     1 STRESS PERIOD     1
      5 TOTAL ITERATIONS
     3 CALLS TO GCG PACKAGE FOR TRANSPORT TIME STEP    21 IN FLOW TIME STEP     1 STRESS PERIOD     1
      5 TOTAL ITERATIONS
     3 CALLS TO GCG PACKAGE FOR TRANSPORT TIME STEP    22 IN FLOW TIME STEP     1 STRESS PERIOD     1
      5 TOTAL ITERATIONS
     3 CALLS TO GCG PACKAGE FOR TRANSPORT TIME STEP    23 IN FLOW TIME STEP     1 STRESS PERIOD     1
      5 TOTAL ITERATIONS
     3 CALLS TO GCG PACKAGE FOR TRANSPORT TIME STEP    24 IN FLOW TIME STEP     1 STRESS PERIOD     1
      5 TOTAL ITERATIONS
     3 CALLS TO GCG PACKAGE FOR TRANSPORT TIME STEP    25 IN FLOW TIME STEP     1 STRESS PERIOD     1
      5 TOTAL ITERATIONS
     3 CALLS TO GCG PACKAGE FOR TRANSPORT TIME STEP    26 IN FLOW TIME STEP     1 STRESS PERIOD     1
      5 TOTAL ITERATIONS
     3 CALLS TO GCG PACKAGE FOR TRANSPORT TIME STEP    27 IN FLOW TIME STEP     1 STRESS PERIOD     1
      5 TOTAL ITERATIONS
     3 CALLS TO GCG PACKAGE FOR TRANSPORT TIME STEP    28 IN FLOW TIME STEP     1 STRESS PERIOD     1
      5 TOTAL ITERATIONS
     3 CALLS TO GCG PACKAGE FOR TRANSPORT TIME STEP    29 IN FLOW TIME STEP     1 STRESS PERIOD     1
      5 TOTAL ITERATIONS
     3 CALLS TO GCG PACKAGE FOR TRANSPORT TIME STEP    30 IN FLOW TIME STEP     1 STRESS PERIOD     1
      5 TOTAL ITERATIONS
     3 CALLS TO GCG PACKAGE FOR TRANSPORT TIME STEP    31 IN FLOW TIME STEP     1 STRESS PERIOD     1
      5 TOTAL ITERATIONS
     3 CALLS TO GCG PACKAGE FOR TRANSPORT TIME STEP    32 IN FLOW TIME STEP     1 STRESS PERIOD     1
      5 TOTAL ITERATIONS
     3 CALLS TO GCG PACKAGE FOR TRANSPORT TIME STEP    33 IN FLOW TIME STEP     1 STRESS PERIOD     1
      5 TOTAL ITERATIONS
     3 CALLS TO GCG PACKAGE FOR TRANSPORT TIME STEP    34 IN FLOW TIME STEP     1 STRESS PERIOD     1
      5 TOTAL ITERATIONS
     3 CALLS TO GCG PACKAGE FOR TRANSPORT TIME STEP    35 IN FLOW TIME STEP     1 STRESS PERIOD     1
      5 TOTAL ITERATIONS
     3 CALLS TO GCG PACKAGE FOR TRANSPORT TIME STEP    36 IN FLOW TIME STEP     1 STRESS PERIOD     1
      5 TOTAL ITERATIONS
     3 CALLS TO GCG PACKAGE FOR TRANSPORT TIME STEP    37 IN FLOW TIME STEP     1 STRESS PERIOD     1
      5 TOTAL ITERATIONS
     3 CALLS TO GCG PACKAGE FOR TRANSPORT TIME STEP    38 IN FLOW TIME STEP     1 STRESS PERIOD     1
      5 TOTAL ITERATIONS
     3 CALLS TO GCG PACKAGE FOR TRANSPORT TIME STEP    39 IN FLOW TIME STEP     1 STRESS PERIOD     1
      5 TOTAL ITERATIONS
     3 CALLS TO GCG PACKAGE FOR TRANSPORT TIME STEP    40 IN FLOW TIME STEP     1 STRESS PERIOD     1
      5 TOTAL ITERATIONS
     3 CALLS TO GCG PACKAGE FOR TRANSPORT TIME STEP    41 IN FLOW TIME STEP     1 STRESS PERIOD     1
      5 TOTAL ITERATIONS
     3 CALLS TO GCG PACKAGE FOR TRANSPORT TIME STEP    42 IN FLOW TIME STEP     1 STRESS PERIOD     1
      5 TOTAL ITERATIONS
     3 CALLS TO GCG PACKAGE FOR TRANSPORT TIME STEP    43 IN FLOW TIME STEP     1 STRESS PERIOD     1
      5 TOTAL ITERATIONS
     3 CALLS TO GCG PACKAGE FOR TRANSPORT TIME STEP    44 IN FLOW TIME STEP     1 STRESS PERIOD     1
      5 TOTAL ITERATIONS
     3 CALLS TO GCG PACKAGE FOR TRANSPORT TIME STEP    45 IN FLOW TIME STEP     1 STRESS PERIOD     1
      5 TOTAL ITERATIONS
     3 CALLS TO GCG PACKAGE FOR TRANSPORT TIME STEP    46 IN FLOW TIME STEP     1 STRESS PERIOD     1
      5 TOTAL ITERATIONS
     3 CALLS TO GCG PACKAGE FOR TRANSPORT TIME STEP    47 IN FLOW TIME STEP     1 STRESS PERIOD     1
      5 TOTAL ITERATIONS
     3 CALLS TO GCG PACKAGE FOR TRANSPORT TIME STEP    48 IN FLOW TIME STEP     1 STRESS PERIOD     1
      5 TOTAL ITERATIONS
     3 CALLS TO GCG PACKAGE FOR TRANSPORT TIME STEP    49 IN FLOW TIME STEP     1 STRESS PERIOD     1
      5 TOTAL ITERATIONS
     3 CALLS TO GCG PACKAGE FOR TRANSPORT TIME STEP    50 IN FLOW TIME STEP     1 STRESS PERIOD     1
      5 TOTAL ITERATIONS
     3 CALLS TO GCG PACKAGE FOR TRANSPORT TIME STEP    51 IN FLOW TIME STEP     1 STRESS PERIOD     1
      5 TOTAL ITERATIONS
     3 CALLS TO GCG PACKAGE FOR TRANSPORT TIME STEP    52 IN FLOW TIME STEP     1 STRESS PERIOD     1
      5 TOTAL ITERATIONS
     3 CALLS TO GCG PACKAGE FOR TRANSPORT TIME STEP    53 IN FLOW TIME STEP     1 STRESS PERIOD     1
      5 TOTAL ITERATIONS
     3 CALLS TO GCG PACKAGE FOR TRANSPORT TIME STEP    54 IN FLOW TIME STEP     1 STRESS PERIOD     1
      5 TOTAL ITERATIONS
     3 CALLS TO GCG PACKAGE FOR TRANSPORT TIME STEP    55 IN FLOW TIME STEP     1 STRESS PERIOD     1
      5 TOTAL ITERATIONS
     3 CALLS TO GCG PACKAGE FOR TRANSPORT TIME STEP    56 IN FLOW TIME STEP     1 STRESS PERIOD     1
      5 TOTAL ITERATIONS
     3 CALLS TO GCG PACKAGE FOR TRANSPORT TIME STEP    57 IN FLOW TIME STEP     1 STRESS PERIOD     1
      5 TOTAL ITERATIONS
     3 CALLS TO GCG PACKAGE FOR TRANSPORT TIME STEP    58 IN FLOW TIME STEP     1 STRESS PERIOD     1
      5 TOTAL ITERATIONS
     3 CALLS TO GCG PACKAGE FOR TRANSPORT TIME STEP    59 IN FLOW TIME STEP     1 STRESS PERIOD     1
      5 TOTAL ITERATIONS
     3 CALLS TO GCG PACKAGE FOR TRANSPORT TIME STEP    60 IN FLOW TIME STEP     1 STRESS PERIOD     1
      5 TOTAL ITERATIONS
     3 CALLS TO GCG PACKAGE FOR TRANSPORT TIME STEP    61 IN FLOW TIME STEP     1 STRESS PERIOD     1
      5 TOTAL ITERATIONS
     3 CALLS TO GCG PACKAGE FOR TRANSPORT TIME STEP    62 IN FLOW TIME STEP     1 STRESS PERIOD     1
      5 TOTAL ITERATIONS
     3 CALLS TO GCG PACKAGE FOR TRANSPORT TIME STEP    63 IN FLOW TIME STEP     1 STRESS PERIOD     1
      5 TOTAL ITERATIONS
     3 CALLS TO GCG PACKAGE FOR TRANSPORT TIME STEP    64 IN FLOW TIME STEP     1 STRESS PERIOD     1
      5 TOTAL ITERATIONS
     3 CALLS TO GCG PACKAGE FOR TRANSPORT TIME STEP    65 IN FLOW TIME STEP     1 STRESS PERIOD     1
      5 TOTAL ITERATIONS
     3 CALLS TO GCG PACKAGE FOR TRANSPORT TIME STEP    66 IN FLOW TIME STEP     1 STRESS PERIOD     1
      5 TOTAL ITERATIONS
     3 CALLS TO GCG PACKAGE FOR TRANSPORT TIME STEP    67 IN FLOW TIME STEP     1 STRESS PERIOD     1
      5 TOTAL ITERATIONS
     3 CALLS TO GCG PACKAGE FOR TRANSPORT TIME STEP    68 IN FLOW TIME STEP     1 STRESS PERIOD     1
      5 TOTAL ITERATIONS
     3 CALLS TO GCG PACKAGE FOR TRANSPORT TIME STEP    69 IN FLOW TIME STEP     1 STRESS PERIOD     1
      5 TOTAL ITERATIONS
     3 CALLS TO GCG PACKAGE FOR TRANSPORT TIME STEP    70 IN FLOW TIME STEP     1 STRESS PERIOD     1
      5 TOTAL ITERATIONS
     3 CALLS TO GCG PACKAGE FOR TRANSPORT TIME STEP    71 IN FLOW TIME STEP     1 STRESS PERIOD     1
      5 TOTAL ITERATIONS
     3 CALLS TO GCG PACKAGE FOR TRANSPORT TIME STEP    72 IN FLOW TIME STEP     1 STRESS PERIOD     1
      5 TOTAL ITERATIONS
     3 CALLS TO GCG PACKAGE FOR TRANSPORT TIME STEP    73 IN FLOW TIME STEP     1 STRESS PERIOD     1
      5 TOTAL ITERATIONS
     3 CALLS TO GCG PACKAGE FOR TRANSPORT TIME STEP    74 IN FLOW TIME STEP     1 STRESS PERIOD     1
      5 TOTAL ITERATIONS
     3 CALLS TO GCG PACKAGE FOR TRANSPORT TIME STEP    75 IN FLOW TIME STEP     1 STRESS PERIOD     1
      5 TOTAL ITERATIONS
     3 CALLS TO GCG PACKAGE FOR TRANSPORT TIME STEP    76 IN FLOW TIME STEP     1 STRESS PERIOD     1
      5 TOTAL ITERATIONS
     3 CALLS TO GCG PACKAGE FOR TRANSPORT TIME STEP    77 IN FLOW TIME STEP     1 STRESS PERIOD     1
      5 TOTAL ITERATIONS
     3 CALLS TO GCG PACKAGE FOR TRANSPORT TIME STEP    78 IN FLOW TIME STEP     1 STRESS PERIOD     1
      5 TOTAL ITERATIONS
     3 CALLS TO GCG PACKAGE FOR TRANSPORT TIME STEP    79 IN FLOW TIME STEP     1 STRESS PERIOD     1
      5 TOTAL ITERATIONS
     3 CALLS TO GCG PACKAGE FOR TRANSPORT TIME STEP    80 IN FLOW TIME STEP     1 STRESS PERIOD     1
      5 TOTAL ITERATIONS
     3 CALLS TO GCG PACKAGE FOR TRANSPORT TIME STEP    81 IN FLOW TIME STEP     1 STRESS PERIOD     1
      5 TOTAL ITERATIONS
     3 CALLS TO GCG PACKAGE FOR TRANSPORT TIME STEP    82 IN FLOW TIME STEP     1 STRESS PERIOD     1
      5 TOTAL ITERATIONS
     3 CALLS TO GCG PACKAGE FOR TRANSPORT TIME STEP    83 IN FLOW TIME STEP     1 STRESS PERIOD     1
      5 TOTAL ITERATIONS
     3 CALLS TO GCG PACKAGE FOR TRANSPORT TIME STEP    84 IN FLOW TIME STEP     1 STRESS PERIOD     1
      5 TOTAL ITERATIONS
     3 CALLS TO GCG PACKAGE FOR TRANSPORT TIME STEP    85 IN FLOW TIME STEP     1 STRESS PERIOD     1
      5 TOTAL ITERATIONS
     3 CALLS TO GCG PACKAGE FOR TRANSPORT TIME STEP    86 IN FLOW TIME STEP     1 STRESS PERIOD     1
      5 TOTAL ITERATIONS
     3 CALLS TO GCG PACKAGE FOR TRANSPORT TIME STEP    87 IN FLOW TIME STEP     1 STRESS PERIOD     1
      5 TOTAL ITERATIONS
     3 CALLS TO GCG PACKAGE FOR TRANSPORT TIME STEP    88 IN FLOW TIME STEP     1 STRESS PERIOD     1
      5 TOTAL ITERATIONS
     3 CALLS TO GCG PACKAGE FOR TRANSPORT TIME STEP    89 IN FLOW TIME STEP     1 STRESS PERIOD     1
      5 TOTAL ITERATIONS
     3 CALLS TO GCG PACKAGE FOR TRANSPORT TIME STEP    90 IN FLOW TIME STEP     1 STRESS PERIOD     1
      5 TOTAL ITERATIONS
     3 CALLS TO GCG PACKAGE FOR TRANSPORT TIME STEP    91 IN FLOW TIME STEP     1 STRESS PERIOD     1
      5 TOTAL ITERATIONS
     3 CALLS TO GCG PACKAGE FOR TRANSPORT TIME STEP    92 IN FLOW TIME STEP     1 STRESS PERIOD     1
      5 TOTAL ITERATIONS
     3 CALLS TO GCG PACKAGE FOR TRANSPORT TIME STEP    93 IN FLOW TIME STEP     1 STRESS PERIOD     1
      5 TOTAL ITERATIONS
     3 CALLS TO GCG PACKAGE FOR TRANSPORT TIME STEP    94 IN FLOW TIME STEP     1 STRESS PERIOD     1
      5 TOTAL ITERATIONS
     3 CALLS TO GCG PACKAGE FOR TRANSPORT TIME STEP    95 IN FLOW TIME STEP     1 STRESS PERIOD     1
      5 TOTAL ITERATIONS
     3 CALLS TO GCG PACKAGE FOR TRANSPORT TIME STEP    96 IN FLOW TIME STEP     1 STRESS PERIOD     1
      5 TOTAL ITERATIONS
     3 CALLS TO GCG PACKAGE FOR TRANSPORT TIME STEP    97 IN FLOW TIME STEP     1 STRESS PERIOD     1
      5 TOTAL ITERATIONS
     3 CALLS TO GCG PACKAGE FOR TRANSPORT TIME STEP    98 IN FLOW TIME STEP     1 STRESS PERIOD     1
      5 TOTAL ITERATIONS
     3 CALLS TO GCG PACKAGE FOR TRANSPORT TIME STEP    99 IN FLOW TIME STEP     1 STRESS PERIOD     1
[...]
      5 TOTAL ITERATIONS
     3 CALLS TO GCG PACKAGE FOR TRANSPORT TIME STEP   105 IN FLOW TIME STEP     1 STRESS PERIOD     3
      5 TOTAL ITERATIONS
     3 CALLS TO GCG PACKAGE FOR TRANSPORT TIME STEP   106 IN FLOW TIME STEP     1 STRESS PERIOD     3
      5 TOTAL ITERATIONS
     3 CALLS TO GCG PACKAGE FOR TRANSPORT TIME STEP   107 IN FLOW TIME STEP     1 STRESS PERIOD     3
      5 TOTAL ITERATIONS
     3 CALLS TO GCG PACKAGE FOR TRANSPORT TIME STEP   108 IN FLOW TIME STEP     1 STRESS PERIOD     3
      5 TOTAL ITERATIONS
     3 CALLS TO GCG PACKAGE FOR TRANSPORT TIME STEP   109 IN FLOW TIME STEP     1 STRESS PERIOD     3
      5 TOTAL ITERATIONS
     3 CALLS TO GCG PACKAGE FOR TRANSPORT TIME STEP   110 IN FLOW TIME STEP     1 STRESS PERIOD     3
      5 TOTAL ITERATIONS
     3 CALLS TO GCG PACKAGE FOR TRANSPORT TIME STEP   111 IN FLOW TIME STEP     1 STRESS PERIOD     3
      5 TOTAL ITERATIONS
     3 CALLS TO GCG PACKAGE FOR TRANSPORT TIME STEP   112 IN FLOW TIME STEP     1 STRESS PERIOD     3
      5 TOTAL ITERATIONS
     3 CALLS TO GCG PACKAGE FOR TRANSPORT TIME STEP   113 IN FLOW TIME STEP     1 STRESS PERIOD     3
      5 TOTAL ITERATIONS
     3 CALLS TO GCG PACKAGE FOR TRANSPORT TIME STEP   114 IN FLOW TIME STEP     1 STRESS PERIOD     3
      5 TOTAL ITERATIONS
     3 CALLS TO GCG PACKAGE FOR TRANSPORT TIME STEP   115 IN FLOW TIME STEP     1 STRESS PERIOD     3
      5 TOTAL ITERATIONS
     3 CALLS TO GCG PACKAGE FOR TRANSPORT TIME STEP   116 IN FLOW TIME STEP     1 STRESS PERIOD     3
      5 TOTAL ITERATIONS
     3 CALLS TO GCG PACKAGE FOR TRANSPORT TIME STEP   117 IN FLOW TIME STEP     1 STRESS PERIOD     3
      5 TOTAL ITERATIONS
     3 CALLS TO GCG PACKAGE FOR TRANSPORT TIME STEP   118 IN FLOW TIME STEP     1 STRESS PERIOD     3
      5 TOTAL ITERATIONS
     3 CALLS TO GCG PACKAGE FOR TRANSPORT TIME STEP   119 IN FLOW TIME STEP     1 STRESS PERIOD     3
      5 TOTAL ITERATIONS
     3 CALLS TO GCG PACKAGE FOR TRANSPORT TIME STEP   120 IN FLOW TIME STEP     1 STRESS PERIOD     3
      5 TOTAL ITERATIONS
     3 CALLS TO GCG PACKAGE FOR TRANSPORT TIME STEP   121 IN FLOW TIME STEP     1 STRESS PERIOD     3
      5 TOTAL ITERATIONS
     3 CALLS TO GCG PACKAGE FOR TRANSPORT TIME STEP   122 IN FLOW TIME STEP     1 STRESS PERIOD     3
      5 TOTAL ITERATIONS
     3 CALLS TO GCG PACKAGE FOR TRANSPORT TIME STEP   123 IN FLOW TIME STEP     1 STRESS PERIOD     3
      5 TOTAL ITERATIONS
     3 CALLS TO GCG PACKAGE FOR TRANSPORT TIME STEP   124 IN FLOW TIME STEP     1 STRESS PERIOD     3
      5 TOTAL ITERATIONS
     3 CALLS TO GCG PACKAGE FOR TRANSPORT TIME STEP   125 IN FLOW TIME STEP     1 STRESS PERIOD     3
      5 TOTAL ITERATIONS
     3 CALLS TO GCG PACKAGE FOR TRANSPORT TIME STEP   126 IN FLOW TIME STEP     1 STRESS PERIOD     3
      5 TOTAL ITERATIONS
     3 CALLS TO GCG PACKAGE FOR TRANSPORT TIME STEP   127 IN FLOW TIME STEP     1 STRESS PERIOD     3
      5 TOTAL ITERATIONS
     3 CALLS TO GCG PACKAGE FOR TRANSPORT TIME STEP   128 IN FLOW TIME STEP     1 STRESS PERIOD     3
      5 TOTAL ITERATIONS
     3 CALLS TO GCG PACKAGE FOR TRANSPORT TIME STEP   129 IN FLOW TIME STEP     1 STRESS PERIOD     3
      5 TOTAL ITERATIONS
     3 CALLS TO GCG PACKAGE FOR TRANSPORT TIME STEP   130 IN FLOW TIME STEP     1 STRESS PERIOD     3
      5 TOTAL ITERATIONS
     3 CALLS TO GCG PACKAGE FOR TRANSPORT TIME STEP   131 IN FLOW TIME STEP     1 STRESS PERIOD     3
      5 TOTAL ITERATIONS
     3 CALLS TO GCG PACKAGE FOR TRANSPORT TIME STEP   132 IN FLOW TIME STEP     1 STRESS PERIOD     3
      5 TOTAL ITERATIONS
     3 CALLS TO GCG PACKAGE FOR TRANSPORT TIME STEP   133 IN FLOW TIME STEP     1 STRESS PERIOD     3
      5 TOTAL ITERATIONS
     3 CALLS TO GCG PACKAGE FOR TRANSPORT TIME STEP   134 IN FLOW TIME STEP     1 STRESS PERIOD     3
      5 TOTAL ITERATIONS
     3 CALLS TO GCG PACKAGE FOR TRANSPORT TIME STEP   135 IN FLOW TIME STEP     1 STRESS PERIOD     3
      5 TOTAL ITERATIONS
     3 CALLS TO GCG PACKAGE FOR TRANSPORT TIME STEP   136 IN FLOW TIME STEP     1 STRESS PERIOD     3
      5 TOTAL ITERATIONS
     3 CALLS TO GCG PACKAGE FOR TRANSPORT TIME STEP   137 IN FLOW TIME STEP     1 STRESS PERIOD     3
      5 TOTAL ITERATIONS
     3 CALLS TO GCG PACKAGE FOR TRANSPORT TIME STEP   138 IN FLOW TIME STEP     1 STRESS PERIOD     3
      5 TOTAL ITERATIONS
     3 CALLS TO GCG PACKAGE FOR TRANSPORT TIME STEP   139 IN FLOW TIME STEP     1 STRESS PERIOD     3
      5 TOTAL ITERATIONS
     3 CALLS TO GCG PACKAGE FOR TRANSPORT TIME STEP   140 IN FLOW TIME STEP     1 STRESS PERIOD     3
      5 TOTAL ITERATIONS
     3 CALLS TO GCG PACKAGE FOR TRANSPORT TIME STEP   141 IN FLOW TIME STEP     1 STRESS PERIOD     3
      5 TOTAL ITERATIONS
     3 CALLS TO GCG PACKAGE FOR TRANSPORT TIME STEP   142 IN FLOW TIME STEP     1 STRESS PERIOD     3
      5 TOTAL ITERATIONS
     3 CALLS TO GCG PACKAGE FOR TRANSPORT TIME STEP   143 IN FLOW TIME STEP     1 STRESS PERIOD     3
      5 TOTAL ITERATIONS
     3 CALLS TO GCG PACKAGE FOR TRANSPORT TIME STEP   144 IN FLOW TIME STEP     1 STRESS PERIOD     3
      5 TOTAL ITERATIONS
     3 CALLS TO GCG PACKAGE FOR TRANSPORT TIME STEP   145 IN FLOW TIME STEP     1 STRESS PERIOD     3
      5 TOTAL ITERATIONS
     3 CALLS TO GCG PACKAGE FOR TRANSPORT TIME STEP   146 IN FLOW TIME STEP     1 STRESS PERIOD     3
      5 TOTAL ITERATIONS
     3 CALLS TO GCG PACKAGE FOR TRANSPORT TIME STEP   147 IN FLOW TIME STEP     1 STRESS PERIOD     3
      5 TOTAL ITERATIONS
     3 CALLS TO GCG PACKAGE FOR TRANSPORT TIME STEP   148 IN FLOW TIME STEP     1 STRESS PERIOD     3
      5 TOTAL ITERATIONS
     3 CALLS TO GCG PACKAGE FOR TRANSPORT TIME STEP   149 IN FLOW TIME STEP     1 STRESS PERIOD     3
      5 TOTAL ITERATIONS
     3 CALLS TO GCG PACKAGE FOR TRANSPORT TIME STEP   150 IN FLOW TIME STEP     1 STRESS PERIOD     3
      5 TOTAL ITERATIONS
     3 CALLS TO GCG PACKAGE FOR TRANSPORT TIME STEP   151 IN FLOW TIME STEP     1 STRESS PERIOD     3
      5 TOTAL ITERATIONS
     3 CALLS TO GCG PACKAGE FOR TRANSPORT TIME STEP   152 IN FLOW TIME STEP     1 STRESS PERIOD     3
      5 TOTAL ITERATIONS
     3 CALLS TO GCG PACKAGE FOR TRANSPORT TIME STEP   153 IN FLOW TIME STEP     1 STRESS PERIOD     3
      5 TOTAL ITERATIONS
     3 CALLS TO GCG PACKAGE FOR TRANSPORT TIME STEP   154 IN FLOW TIME STEP     1 STRESS PERIOD     3
      5 TOTAL ITERATIONS
     3 CALLS TO GCG PACKAGE FOR TRANSPORT TIME STEP   155 IN FLOW TIME STEP     1 STRESS PERIOD     3
      5 TOTAL ITERATIONS
     3 CALLS TO GCG PACKAGE FOR TRANSPORT TIME STEP   156 IN FLOW TIME STEP     1 STRESS PERIOD     3
      5 TOTAL ITERATIONS
     3 CALLS TO GCG PACKAGE FOR TRANSPORT TIME STEP   157 IN FLOW TIME STEP     1 STRESS PERIOD     3
      5 TOTAL ITERATIONS
     3 CALLS TO GCG PACKAGE FOR TRANSPORT TIME STEP   158 IN FLOW TIME STEP     1 STRESS PERIOD     3
      5 TOTAL ITERATIONS
     3 CALLS TO GCG PACKAGE FOR TRANSPORT TIME STEP   159 IN FLOW TIME STEP     1 STRESS PERIOD     3
      5 TOTAL ITERATIONS
     3 CALLS TO GCG PACKAGE FOR TRANSPORT TIME STEP   160 IN FLOW TIME STEP     1 STRESS PERIOD     3
      5 TOTAL ITERATIONS
     3 CALLS TO GCG PACKAGE FOR TRANSPORT TIME STEP   161 IN FLOW TIME STEP     1 STRESS PERIOD     3
      5 TOTAL ITERATIONS
     3 CALLS TO GCG PACKAGE FOR TRANSPORT TIME STEP   162 IN FLOW TIME STEP     1 STRESS PERIOD     3
      5 TOTAL ITERATIONS
     3 CALLS TO GCG PACKAGE FOR TRANSPORT TIME STEP   163 IN FLOW TIME STEP     1 STRESS PERIOD     3
      5 TOTAL ITERATIONS
     3 CALLS TO GCG PACKAGE FOR TRANSPORT TIME STEP   164 IN FLOW TIME STEP     1 STRESS PERIOD     3
      5 TOTAL ITERATIONS
     3 CALLS TO GCG PACKAGE FOR TRANSPORT TIME STEP   165 IN FLOW TIME STEP     1 STRESS PERIOD     3
      5 TOTAL ITERATIONS
     3 CALLS TO GCG PACKAGE FOR TRANSPORT TIME STEP   166 IN FLOW TIME STEP     1 STRESS PERIOD     3
      5 TOTAL ITERATIONS
     3 CALLS TO GCG PACKAGE FOR TRANSPORT TIME STEP   167 IN FLOW TIME STEP     1 STRESS PERIOD     3
      5 TOTAL ITERATIONS
     3 CALLS TO GCG PACKAGE FOR TRANSPORT TIME STEP   168 IN FLOW TIME STEP     1 STRESS PERIOD     3
      5 TOTAL ITERATIONS
     3 CALLS TO GCG PACKAGE FOR TRANSPORT TIME STEP   169 IN FLOW TIME STEP     1 STRESS PERIOD     3
      5 TOTAL ITERATIONS
     3 CALLS TO GCG PACKAGE FOR TRANSPORT TIME STEP   170 IN FLOW TIME STEP     1 STRESS PERIOD     3
      5 TOTAL ITERATIONS
     3 CALLS TO GCG PACKAGE FOR TRANSPORT TIME STEP   171 IN FLOW TIME STEP     1 STRESS PERIOD     3
      5 TOTAL ITERATIONS
     3 CALLS TO GCG PACKAGE FOR TRANSPORT TIME STEP   172 IN FLOW TIME STEP     1 STRESS PERIOD     3
      5 TOTAL ITERATIONS
     3 CALLS TO GCG PACKAGE FOR TRANSPORT TIME STEP   173 IN FLOW TIME STEP     1 STRESS PERIOD     3
      5 TOTAL ITERATIONS
     3 CALLS TO GCG PACKAGE FOR TRANSPORT TIME STEP   174 IN FLOW TIME STEP     1 STRESS PERIOD     3
      5 TOTAL ITERATIONS
     3 CALLS TO GCG PACKAGE FOR TRANSPORT TIME STEP   175 IN FLOW TIME STEP     1 STRESS PERIOD     3
      5 TOTAL ITERATIONS
     3 CALLS TO GCG PACKAGE FOR TRANSPORT TIME STEP   176 IN FLOW TIME STEP     1 STRESS PERIOD     3
      5 TOTAL ITERATIONS
     3 CALLS TO GCG PACKAGE FOR TRANSPORT TIME STEP   177 IN FLOW TIME STEP     1 STRESS PERIOD     3
      5 TOTAL ITERATIONS
     3 CALLS TO GCG PACKAGE FOR TRANSPORT TIME STEP   178 IN FLOW TIME STEP     1 STRESS PERIOD     3
      5 TOTAL ITERATIONS
     3 CALLS TO GCG PACKAGE FOR TRANSPORT TIME STEP   179 IN FLOW TIME STEP     1 STRESS PERIOD     3
      5 TOTAL ITERATIONS
     3 CALLS TO GCG PACKAGE FOR TRANSPORT TIME STEP   180 IN FLOW TIME STEP     1 STRESS PERIOD     3
      5 TOTAL ITERATIONS
     3 CALLS TO GCG PACKAGE FOR TRANSPORT TIME STEP   181 IN FLOW TIME STEP     1 STRESS PERIOD     3
      5 TOTAL ITERATIONS
     3 CALLS TO GCG PACKAGE FOR TRANSPORT TIME STEP   182 IN FLOW TIME STEP     1 STRESS PERIOD     3
      5 TOTAL ITERATIONS
     3 CALLS TO GCG PACKAGE FOR TRANSPORT TIME STEP   183 IN FLOW TIME STEP     1 STRESS PERIOD     3
      5 TOTAL ITERATIONS
     3 CALLS TO GCG PACKAGE FOR TRANSPORT TIME STEP   184 IN FLOW TIME STEP     1 STRESS PERIOD     3
      5 TOTAL ITERATIONS
     3 CALLS TO GCG PACKAGE FOR TRANSPORT TIME STEP   185 IN FLOW TIME STEP     1 STRESS PERIOD     3
      5 TOTAL ITERATIONS
     3 CALLS TO GCG PACKAGE FOR TRANSPORT TIME STEP   186 IN FLOW TIME STEP     1 STRESS PERIOD     3
      5 TOTAL ITERATIONS
     3 CALLS TO GCG PACKAGE FOR TRANSPORT TIME STEP   187 IN FLOW TIME STEP     1 STRESS PERIOD     3
      5 TOTAL ITERATIONS
     3 CALLS TO GCG PACKAGE FOR TRANSPORT TIME STEP   188 IN FLOW TIME STEP     1 STRESS PERIOD     3
      5 TOTAL ITERATIONS
     3 CALLS TO GCG PACKAGE FOR TRANSPORT TIME STEP   189 IN FLOW TIME STEP     1 STRESS PERIOD     3
      5 TOTAL ITERATIONS
     3 CALLS TO GCG PACKAGE FOR TRANSPORT TIME STEP   190 IN FLOW TIME STEP     1 STRESS PERIOD     3
      5 TOTAL ITERATIONS
     3 CALLS TO GCG PACKAGE FOR TRANSPORT TIME STEP   191 IN FLOW TIME STEP     1 STRESS PERIOD     3
      5 TOTAL ITERATIONS
     3 CALLS TO GCG PACKAGE FOR TRANSPORT TIME STEP   192 IN FLOW TIME STEP     1 STRESS PERIOD     3
      5 TOTAL ITERATIONS
     3 CALLS TO GCG PACKAGE FOR TRANSPORT TIME STEP   193 IN FLOW TIME STEP     1 STRESS PERIOD     3
      5 TOTAL ITERATIONS
     3 CALLS TO GCG PACKAGE FOR TRANSPORT TIME STEP   194 IN FLOW TIME STEP     1 STRESS PERIOD     3
      5 TOTAL ITERATIONS
     3 CALLS TO GCG PACKAGE FOR TRANSPORT TIME STEP   195 IN FLOW TIME STEP     1 STRESS PERIOD     3
      5 TOTAL ITERATIONS
     3 CALLS TO GCG PACKAGE FOR TRANSPORT TIME STEP   196 IN FLOW TIME STEP     1 STRESS PERIOD     3
      5 TOTAL ITERATIONS
     3 CALLS TO GCG PACKAGE FOR TRANSPORT TIME STEP   197 IN FLOW TIME STEP     1 STRESS PERIOD     3
      5 TOTAL ITERATIONS
     3 CALLS TO GCG PACKAGE FOR TRANSPORT TIME STEP   198 IN FLOW TIME STEP     1 STRESS PERIOD     3
      5 TOTAL ITERATIONS
     3 CALLS TO GCG PACKAGE FOR TRANSPORT TIME STEP   199 IN FLOW TIME STEP     1 STRESS PERIOD     3
      5 TOTAL ITERATIONS
     3 CALLS TO GCG PACKAGE FOR TRANSPORT TIME STEP   200 IN FLOW TIME STEP     1 STRESS PERIOD     3
      5 TOTAL ITERATIONS
     3 CALLS TO GCG PACKAGE FOR TRANSPORT TIME STEP   201 IN FLOW TIME STEP     1 STRESS PERIOD     3
      5 TOTAL ITERATIONS
     3 CALLS TO GCG PACKAGE FOR TRANSPORT TIME STEP   202 IN FLOW TIME STEP     1 STRESS PERIOD     3
      5 TOTAL ITERATIONS
     3 CALLS TO GCG PACKAGE FOR TRANSPORT TIME STEP   203 IN FLOW TIME STEP     1 STRESS PERIOD     3
      5 TOTAL ITERATIONS
     3 CALLS TO GCG PACKAGE FOR TRANSPORT TIME STEP   204 IN FLOW TIME STEP     1 STRESS PERIOD     3
      5 TOTAL ITERATIONS
     3 CALLS TO GCG PACKAGE FOR TRANSPORT TIME STEP   205 IN FLOW TIME STEP     1 STRESS PERIOD     3
      5 TOTAL ITERATIONS
     3 CALLS TO GCG PACKAGE FOR TRANSPORT TIME STEP   206 IN FLOW TIME STEP     1 STRESS PERIOD     3
      5 TOTAL ITERATIONS
     3 CALLS TO GCG PACKAGE FOR TRANSPORT TIME STEP   207 IN FLOW TIME STEP     1 STRESS PERIOD     3
      5 TOTAL ITERATIONS
     3 CALLS TO GCG PACKAGE FOR TRANSPORT TIME STEP   208 IN FLOW TIME STEP     1 STRESS PERIOD     3
      5 TOTAL ITERATIONS
     3 CALLS TO GCG PACKAGE FOR TRANSPORT TIME STEP   209 IN FLOW TIME STEP     1 STRESS PERIOD     3
      5 TOTAL ITERATIONS
     3 CALLS TO GCG PACKAGE FOR TRANSPORT TIME STEP   210 IN FLOW TIME STEP     1 STRESS PERIOD     3
      5 TOTAL ITERATIONS
     3 CALLS TO GCG PACKAGE FOR TRANSPORT TIME STEP   211 IN FLOW TIME STEP     1 STRESS PERIOD     3
      5 TOTAL ITERATIONS
     3 CALLS TO GCG PACKAGE FOR TRANSPORT TIME STEP   212 IN FLOW TIME STEP     1 STRESS PERIOD     3
      5 TOTAL ITERATIONS
     3 CALLS TO GCG PACKAGE FOR TRANSPORT TIME STEP   213 IN FLOW TIME STEP     1 STRESS PERIOD     3
      5 TOTAL ITERATIONS
     3 CALLS TO GCG PACKAGE FOR TRANSPORT TIME STEP   214 IN FLOW TIME STEP     1 STRESS PERIOD     3
      5 TOTAL ITERATIONS
     3 CALLS TO GCG PACKAGE FOR TRANSPORT TIME STEP   215 IN FLOW TIME STEP     1 STRESS PERIOD     3
      5 TOTAL ITERATIONS
     3 CALLS TO GCG PACKAGE FOR TRANSPORT TIME STEP   216 IN FLOW TIME STEP     1 STRESS PERIOD     3
      5 TOTAL ITERATIONS
     3 CALLS TO GCG PACKAGE FOR TRANSPORT TIME STEP   217 IN FLOW TIME STEP     1 STRESS PERIOD     3
      5 TOTAL ITERATIONS
     3 CALLS TO GCG PACKAGE FOR TRANSPORT TIME STEP   218 IN FLOW TIME STEP     1 STRESS PERIOD     3
      5 TOTAL ITERATIONS
     3 CALLS TO GCG PACKAGE FOR TRANSPORT TIME STEP   219 IN FLOW TIME STEP     1 STRESS PERIOD     3
      5 TOTAL ITERATIONS
     3 CALLS TO GCG PACKAGE FOR TRANSPORT TIME STEP   220 IN FLOW TIME STEP     1 STRESS PERIOD     3
      5 TOTAL ITERATIONS
     3 CALLS TO GCG PACKAGE FOR TRANSPORT TIME STEP   221 IN FLOW TIME STEP     1 STRESS PERIOD     3
      5 TOTAL ITERATIONS
  MAXIMUM CONCENTRATION CHANGES FOR EACH ITERATION:
  MAX. CHANGE LAYER,ROW,COL MAX. CHANGE LAYER,ROW,COL MAX. CHANGE LAYER,ROW,COL MAX. CHANGE LAYER,ROW,COL MAX. CHANGE LAYER,ROW,COL
 ------------------------------------------------------------------------------------------------------------------------------------
   0.4252     (  1,  9, 16)   0.000     (  1,  1,  1)  0.4584E-03 (  1,  8, 17)   0.000     (  1,  1,  1)   0.000     (  1,  1,  1)


                     STREAM MASS BUDGETS AT END OF TRANSPORT STEP  221, TIME STEP    1, STRESS PERIOD    3 FOR COMPONENT   1
                     -------------------------------------------------------------------------------------------------------

                                         CUMULATIVE MASS [M]                                     MASS FOR THIS TIME STEP [M]
                                         -------------------                                    --------------
                      STREAM DEPLETION =   30875.59                          STREAM DEPLETION =  0.3890220E-02
                      INFLOW TO STREAM =   0.000000                          INFLOW TO STREAM =   0.000000    
                          GW TO STREAM =   3205081.                              GW TO STREAM =   919.2371    
                         PRECIPITATION =   0.000000                             PRECIPITATION =   0.000000    
                                RUNOFF =   0.000000                                    RUNOFF =   0.000000    
                CONSTANT CONCENTRATION =   0.000000                    CONSTANT CONCENTRATION =   0.000000    
                                         -------------------                                    --------------
                              TOTAL IN =   3235956.                                  TOTAL IN =   919.2410    

                   STREAM ACCUMULATION =   31115.29                       STREAM ACCUMULATION =  0.1389860E-01
                        STREAM OUTFLOW =   3129219.                            STREAM OUTFLOW =   846.8283    
                          STREAM TO GW =   75622.59                              STREAM TO GW =   72.39887    
                CONSTANT CONCENTRATION =   0.000000                    CONSTANT CONCENTRATION =   0.000000    
                                         -------------------                                    --------------
                             TOTAL OUT =   3235957.                                 TOTAL OUT =   919.2411    

                        NET (IN - OUT) = -0.5000000                            NET (IN - OUT) = -0.6103516E-04
                 DISCREPANCY (PERCENT) = -0.1545138E-04                 DISCREPANCY (PERCENT) = -0.6639733E-05
                                              FLOW ERR (QIN-QOUT-DV) =  -1.634766     [L3/T]




 >>>>>>>>>>>>>>>>>>>>>>>>>>>>>>>>>>>>>>>>>>>>>>>>>>>>>>>FOR COMPONENT NO. 01<<<<<<<<<<<<<<<<<<<<<<<<<<<<<<<<<<<<<<<<<<<<<<<<<<<<<<<


                                            -------------------------------------------
                                                      TRANSPORT STEP NO.  221
                                            -------------------------------------------

 TOTAL ELAPSED TIME SINCE BEGINNING OF SIMULATION =   10950.00    D   
 .....................................................................

                     CUMULATIVE MASS BUDGETS AT END OF TRANSPORT STEP  221, TIME STEP    1, STRESS PERIOD    3
                     -----------------------------------------------------------------------------------------

                                                             IN                           OUT
                                                      ----------------             ----------------
                               CONSTANT CONCENTRATION:    0.000000                    0.000000    
                                        CONSTANT HEAD:    0.000000                   -1063295.    
                                                WELLS:    0.000000                   -2691339.    
                                             RECHARGE:    0.000000                    0.000000    
                                         MASS LOADING:    7719808.                    0.000000    
                                               STREAM:    75622.59                   -3205081.    
                               1ST/0TH ORDER REACTION:    0.000000                   -9038729.    
                               MASS STOR (FLOW MODEL):    562598.7                    0.000000    
                                MASS STORAGE (SOLUTE):    7846960.                   -125997.3    
                            ---------------------------------------------------------------------------
                                              [TOTAL]:   0.1620499E+08 KG           -0.1612444E+08 KG  

                                                          NET (IN - OUT):    80550.00    
                                                   DISCREPANCY (PERCENT):   0.4983076    
  ----- 
 | M T |
 | 3 D | END OF MODEL OUTPUT
  ----- 
