 LISTING FILE: freyberg.mt3d.list
                         UNIT  16

 OPENING mt3d_link.ftl
 FILE TYPE:FTL   UNIT  10

 OPENING freyberg.mt3d.btn
 FILE TYPE:BTN   UNIT  31

 OPENING freyberg.mt3d.gcg
 FILE TYPE:GCG   UNIT  35

 OPENING freyberg.mt3d.rct
 FILE TYPE:RCT   UNIT  36

 OPENING freyberg.mt3d.adv
 FILE TYPE:ADV   UNIT  32

 OPENING freyberg.mt3d.ssm
 FILE TYPE:SSM   UNIT  34

 OPENING freyberg.mt3d.sft
 FILE TYPE:SFT   UNIT  19

 OPENING ./delr.ref
 FILE TYPE:DATA   UNIT2001

 OPENING ./delc.ref
 FILE TYPE:DATA   UNIT2002

 OPENING ./htop.ref
 FILE TYPE:DATA   UNIT2003

 OPENING ./dz_layer_1.ref
 FILE TYPE:DATA   UNIT2004

 OPENING ./prsity_layer_1.ref
 FILE TYPE:DATA   UNIT2005

 OPENING ./icbund_layer_1.ref
 FILE TYPE:DATA   UNIT2006

 OPENING ./sconc1_layer_1.ref
 FILE TYPE:DATA   UNIT2007

 OPENING ./rc11_layer_1.ref
 FILE TYPE:DATA   UNIT2008

 OPENING ./rc21_layer_1.ref
 FILE TYPE:DATA   UNIT2009

 OPENING ./crch10.ref
 FILE TYPE:DATA   UNIT2011

 OPENING freyberg.mt3d
 FILE TYPE:DATA   UNIT1001

                              +++++++++++++++++++++++++++++++++++++++++++++++++++++++++++++++++++++++
                              +                                                                     +
                              +                              MT3D-USGS                              +
                              +             A Modular 3D Multi-Species Transport Model              +
                              +    For Simulation of Advection, Dispersion and Chemical Reactions   +
                              +                of Contaminants in Groundwater Systems               +
                              +                                                                     +
                              +++++++++++++++++++++++++++++++++++++++++++++++++++++++++++++++++++++++

  ----- 
 | M T | ## BTN for MT3DMS, generated by Flopy.                                          
 | 3 D | ##                                                                              
  ----- 
 THE TRANSPORT MODEL CONSISTS OF     1 LAYER(S)   40 ROW(S)   20 COLUMN(S)
 NUMBER OF STRESS PERIOD(S) FOR TRANSPORT SIMULATION =    1
 NUMBER OF ALL COMPONENTS INCLUDED IN SIMULATION =    1
 NUMBER OF MOBILE COMPONENTS INCLUDED IN SIMULATION =    1
 UNIT FOR TIME IS D   ;  UNIT FOR LENGTH IS M   ;  UNIT FOR MASS IS KG  
 OPTIONAL PACKAGES INCLUDED IN CURRENT SIMULATION:
  o ADV   ON UNIT 32
  o SSM   ON UNIT 34
  o RCT   ON UNIT 36
  o GCG   ON UNIT 35
  o SFT   ON UNIT 19


 BTN1 -- BASIC TRANSPORT PACKAGE, VERSION 1, MAY 2016, INPUT READ FROM UNIT 31

 BTN PACKAGE KEYWORD INPUT: 
 DRYCELL OPTION NOT SET
  DRY CELL BUDGET OMITTED FROM GLAOBAL MASS BALANCE SUMMARY

 LAYER NUMBER  AQUIFER TYPE
 ------------  ------------
       1            1



           WIDTH ALONG ROWS (DELR) 
 READING ON UNIT 2001 WITH FORMAT:           (20E15.6) 



           WIDTH ALONG COLS (DELC) 
 READING ON UNIT 2002 WITH FORMAT:           (40E15.6) 



           TOP ELEV. OF 1ST LAYER  
 READING ON UNIT 2003 WITH FORMAT:           (20E15.6) 



           CELL THICKNESS (DZ)      FOR LAYER   1
 READING ON UNIT 2004 WITH FORMAT:           (20E15.6) 



           POROSITY                 FOR LAYER   1
 READING ON UNIT 2005 WITH FORMAT:           (20E15.6) 



           CONCN. BOUNDARY ARRAY    FOR LAYER   1
 READING ON UNIT 2006 WITH FORMAT:             (20I10) 



           INITIAL CONC.: COMP.  01 FOR LAYER   1
 READING ON UNIT 2007 WITH FORMAT:           (20E15.6) 

 VALUE INDICATING INACTIVE CONCENTRATION CELLS =   0.1000000E+31
 MINIMUM SATURATED THICKNESS [THKMIN] ALLOWED =  0.0100000 OF TOTAL CELL THICKNESS


 OUTPUT CONTROL OPTIONS
 ----------------------

 DO NOT PRINT CELL CONCENTRATION
 DO NOT PRINT PARTICLE NUMBER IN EACH CELL
 DO NOT PRINT RETARDATION FACTOR
 DO NOT PRINT DISPERSION COEFFICIENT
 SAVE DISSOLVED PHASE CONCENTRATIONS IN UNFORMATTED FILES [MT3Dnnn.UCN]
  FOR EACH SPECIES ON UNITS 201 AND ABOVE

 NUMBER OF TIMES AT WHICH SIMULATION RESULTS ARE SAVED =    0

 NUMBER OF OBSERVATION POINTS =    0

 SAVE ONE-LINE SUMMARY OF MASS BUDGETS IN FILES [MT3Dnnn.MAS]
  FOR EACH SPECIES ON UNITS 601 AND ABOVE, EVERY  1 TRANSPORT STEPS

 MAXIMUM LENGTH ALONG THE X (J) AXIS =   5000.000    
 MAXIMUM LENGTH ALONG THE Y (I) AXIS =   10000.00    
 MAXIMUM LENGTH ALONG THE Z (K) AXIS =   35.20274    
 FMI1 -- FLOW MODEL INTERFACE PACKAGE, VERSION 1, MAY 2016, INPUT READ FROM UNIT 10
 FLOW MODEL IS STEADY-STATE
 FLOW MODEL CONTAINS CONSTANT-HEAD CELLS


 ADV1 -- ADVECTION PACKAGE, VERSION 1, MAY 2016, INPUT READ FROM UNIT 32
 ADVECTION IS SOLVED WITH THE ULTIMATE SCHEME
 COURANT NUMBER ALLOWED IN SOLVING THE ADVECTION TERM = 0.750    


 ADVECTION SOLUTION OPTIONS
 --------------------------

 ADVECTION IS SOLVED WITH THE ULTIMATE SCHEME
 COURANT NUMBER ALLOWED IN SOLVING THE ADVECTION TERM = 0.750    

 SSM1 -- SINK & SOURCE MIXING PACKAGE, VERSION 1, MAY 2016, INPUT READ FROM UNIT 34
 HEADER LINE OF THE SSM PACKAGE INPUT FILE:
  t f t f f f f f f f f f f f f f                                        
 MAJOR STRESS COMPONENTS PRESENT IN THE FLOW MODEL:
  o WELL [WEL]
  o RECHARGE [RCH]
 MAXIMUM NUMBER OF POINT SINKS/SOURCES =     816

 RCT1 -- CHEMICAL REACTION PACKAGE, VERSION 1, MAY 2016, INPUT READ FROM UNIT 36
 NO SORPTION [OR DUAL-DOMAIN MODEL] IS SIMULATED
 FIRST-ORDER IRREVERSIBLE REACTION [RADIOACTIVE DECAY OR BIODEGRADATION] IS SIMULATED
 REACTION COEFFICIENTS ASSIGNED CELL-BY-CELL
 INITIAL SORBED/IMMOBILE PHASE CONCENTRATION ASSIGNED BY DEFAULT


 SORPTION AND 1ST/0TH ORDER REACTION PARAMETERS
 ----------------------------------------------




           SOLUTE RXN RATE: COMP 01 FOR LAYER   1
 READING ON UNIT 2008 WITH FORMAT:           (20E15.6) 



           SORBED RXN RATE: COMP 01 FOR LAYER   1
 READING ON UNIT 2009 WITH FORMAT:           (20E15.6) 

 MAXIMUM STEPSIZE WHICH MEETS STABILITY CRITERION OF THE REACTION TERM
 =  50.00     AT K=   1, I=   1, J=   1

 GCG1 -- GENERALIZED CONJUGATE GRADIENT SOLVER PACKAGE, VERSION 1, OCTOBER 2010 INPUT READ FROM UNIT 35
 MAXIMUM OF    1 OUTER ITERATIONS
        AND   50 INNER ITERATIONS ALLOWED FOR CLOSURE
 THE PRECONDITIONING TYPE SELECTED IS MODIFIED INCOMPLETE CHOLESKY (MIC).
 DISPERSION CROSS TERMS LUMPED INTO RIGHT-HAND-SIDE



                                               SOLUTION BY THE GENERALIZED CONJUGATE GRADIENT METHOD
                                               -----------------------------------------------------
                                     MAXIMUM OUTER ITERATIONS ALLOWED FOR CLOSURE =        1
                                     MAXIMUM INNER ITERATIONS ALLOWED FOR CLOSURE =       50
                                                    PRECONDITIONING TYPE SELECTED =    3
                                                           ACCELERATION PARAMETER =     1.0000    
                                       CONCENTRATION CHANGE CRITERION FOR CLOSURE =    0.10000E-04
                                       GCG CONCENTRATION CHANGE PRINTOUT INTERVAL =      999

 SFT1 -- STREAM TRANSPORT PACKAGE, VERSION 1, MAY 2016, INPUT READ FROM UNIT 19
 NUMBER OF STREAMS =    40
 MAXIMUM NUMBER OF STREAM BOUNDARY CONDITIONS =     0
 STREAM-FLOW OBSERVATION OUTPUT  WILL BE SAVED IN UNIT:1001
 TRANSIENT SFR FLOW SOLUTION IS USED; MASS WILL BE CONSERVED
 MASS DOES NOT EXIT VIA STREAM ET


 STREAM INPUT PARAMETERS
 -----------------------

 STREAM SOLVER OPTION =     1
   1 = FINITE DIFFERENCE FORMULATION
 STREAM SOLVER TIME WEIGHTING FACTOR =  0.50000    
   0.0 = EXPLICIT SCHEME IS USED
   0.5 = CRANK-NICOLSON SCHEME IS USED
   1.0 = FULLY IMPLICIT SCHEME IS USED
 STREAM SOLVER SPACE WEIGHTING FACTOR =   1.0000    
   0.0 = CENTRAL-IN-SPACE WEIGHTING
   1.0 = UPSTREAM WEIGHTING
 CLOSURE CRITERION FOR SFT SOLVER =  0.10000E-05
 MAXIMUM NUMBER OF SFR ITERATIONS =    10
 COURANT CONSTRAINT FOR SFR TIME-STEP =   1.0000    
 PRINT OPTION FOR xMD SOLVER =            0

 OPENING FILE ON UNIT   99:
 ./coldsf.ref                                                                                                                                                                                            



           STRM INIT CONC COMP# 001
 READING ON UNIT   99 WITH FORMAT: (40E15.6)           

 OPENING FILE ON UNIT   99:
 ./dispsf.ref                                                                                                                                                                                            



           DISP COEF L2/T COMP# 001
 READING ON UNIT   99 WITH FORMAT: (40E15.6)           


                                   ++++++++++++++++++++++++++++++++++++++++++++++++++++++++++++++
                                                       STRESS PERIOD NO.  001
                                   ++++++++++++++++++++++++++++++++++++++++++++++++++++++++++++++


 LENGTH OF CURRENT STRESS PERIOD =   3650.000    
 NUMBER OF TIME STEPS FOR CURRENT STRESS PERIOD =    1
 TIME STEP MULTIPLIER USED IN FLOW SOLUTION =   1.000000    

 ***Type of Transport Simulation is TRANSIENT

 USER-SPECIFIED TRANSPORT STEPSIZE =   0.000000    D   
 MAXIMUM NUMBER OF TRANSPORT STEPS ALLOWED  IN ONE FLOW TIME STEP =     50000
 MULTIPLIER FOR SUCCESSIVE TRANSPORT STEPS  [USED IN IMPLICIT SCHEMES] =     1.000
 MAXIMUM TRANSPORT STEP SIZE  [USED IN IMPLICIT SCHEMES] =   0.000000    D   

 CONCENTRATION OF RECHARGE FLUXES WILL BE READ IN STRESS PERIOD  1



           RECH. CONC. COMP.  01   
 READING ON UNIT 2011 WITH FORMAT:           (20e15.6) 

       NO    LAYER   ROW   COLUMN   CONCENTRATION       TYPE            COMPONENT


 STREAM BOUNDARY CONDITIONS
 --------------------------


 NO. OF STREAM SINKS/SOURCES OF SPECIFIED CONCONCENTRATIONS =    0 IN STRESS PERIOD  1


                                          ================================================
                                                         TIME STEP NO.  001
                                          ================================================

 FROM TIME =   0.0000     TO    3650.0    


                    "THKSAT          " FLOW TERMS FOR TIME STEP  1, STRESS PERIOD  1 READ UNFORMATTED ON UNIT 10
                    --------------------------------------------------------------------------------------------

                    "QXX             " FLOW TERMS FOR TIME STEP  1, STRESS PERIOD  1 READ UNFORMATTED ON UNIT 10
                    --------------------------------------------------------------------------------------------

                    "QYY             " FLOW TERMS FOR TIME STEP  1, STRESS PERIOD  1 READ UNFORMATTED ON UNIT 10
                    --------------------------------------------------------------------------------------------

 MAXIMUM STEPSIZE DURING WHICH ANY PARTICLE CANNOT MOVE MORE THAN ONE CELL
 =  61.20    (WHEN MIN. R.F.=1)  AT K=   1, I=  38, J=   6

 MAXIMUM STEPSIZE WHICH MEETS STABILITY CRITERION OF THE ADVECTION TERM
 (FOR PURE FINITE-DIFFERENCE OPTION, MIXELM=0) 
 =  35.99    (WHEN MIN. R.F.=1)  AT K=   1, I=   9, J=  16

                    "CNH             " FLOW TERMS FOR TIME STEP  1, STRESS PERIOD  1 READ UNFORMATTED ON UNIT 10
                    --------------------------------------------------------------------------------------------

                    "WEL             " FLOW TERMS FOR TIME STEP  1, STRESS PERIOD  1 READ UNFORMATTED ON UNIT 10
                    --------------------------------------------------------------------------------------------

                    "RCH             " FLOW TERMS FOR TIME STEP  1, STRESS PERIOD  1 READ UNFORMATTED ON UNIT 10
                    --------------------------------------------------------------------------------------------

                    "SFR FLOWS TR    " FLOW TERMS FOR TIME STEP  1, STRESS PERIOD  1 READ UNFORMATTED ON UNIT 10
                    --------------------------------------------------------------------------------------------


 TOTAL NUMBER OF POINT SOURCES/SINKS PRESENT IN THE FLOW MODEL =   721

 MAXIMUM STEPSIZE WHICH MEETS STABILITY CRITERION OF THE SINK & SOURCE TERM
 =  799.6    (WHEN MIN. R.F.=1)  AT K=   1, I=   4, J=   3


     1 CALLS TO GCG PACKAGE FOR TRANSPORT TIME STEP     1 IN FLOW TIME STEP     1 STRESS PERIOD     1
      1 TOTAL ITERATIONS
     1 CALLS TO GCG PACKAGE FOR TRANSPORT TIME STEP     2 IN FLOW TIME STEP     1 STRESS PERIOD     1
      1 TOTAL ITERATIONS
     1 CALLS TO GCG PACKAGE FOR TRANSPORT TIME STEP     3 IN FLOW TIME STEP     1 STRESS PERIOD     1
      1 TOTAL ITERATIONS
     1 CALLS TO GCG PACKAGE FOR TRANSPORT TIME STEP     4 IN FLOW TIME STEP     1 STRESS PERIOD     1
      1 TOTAL ITERATIONS
     1 CALLS TO GCG PACKAGE FOR TRANSPORT TIME STEP     5 IN FLOW TIME STEP     1 STRESS PERIOD     1
      1 TOTAL ITERATIONS
     1 CALLS TO GCG PACKAGE FOR TRANSPORT TIME STEP     6 IN FLOW TIME STEP     1 STRESS PERIOD     1
      1 TOTAL ITERATIONS
     1 CALLS TO GCG PACKAGE FOR TRANSPORT TIME STEP     7 IN FLOW TIME STEP     1 STRESS PERIOD     1
      1 TOTAL ITERATIONS
     1 CALLS TO GCG PACKAGE FOR TRANSPORT TIME STEP     8 IN FLOW TIME STEP     1 STRESS PERIOD     1
      1 TOTAL ITERATIONS
     1 CALLS TO GCG PACKAGE FOR TRANSPORT TIME STEP     9 IN FLOW TIME STEP     1 STRESS PERIOD     1
      1 TOTAL ITERATIONS
     1 CALLS TO GCG PACKAGE FOR TRANSPORT TIME STEP    10 IN FLOW TIME STEP     1 STRESS PERIOD     1
      1 TOTAL ITERATIONS
     1 CALLS TO GCG PACKAGE FOR TRANSPORT TIME STEP    11 IN FLOW TIME STEP     1 STRESS PERIOD     1
      1 TOTAL ITERATIONS
     1 CALLS TO GCG PACKAGE FOR TRANSPORT TIME STEP    12 IN FLOW TIME STEP     1 STRESS PERIOD     1
      1 TOTAL ITERATIONS
     1 CALLS TO GCG PACKAGE FOR TRANSPORT TIME STEP    13 IN FLOW TIME STEP     1 STRESS PERIOD     1
      1 TOTAL ITERATIONS
     1 CALLS TO GCG PACKAGE FOR TRANSPORT TIME STEP    14 IN FLOW TIME STEP     1 STRESS PERIOD     1
      1 TOTAL ITERATIONS
     1 CALLS TO GCG PACKAGE FOR TRANSPORT TIME STEP    15 IN FLOW TIME STEP     1 STRESS PERIOD     1
      1 TOTAL ITERATIONS
     1 CALLS TO GCG PACKAGE FOR TRANSPORT TIME STEP    16 IN FLOW TIME STEP     1 STRESS PERIOD     1
      1 TOTAL ITERATIONS
     1 CALLS TO GCG PACKAGE FOR TRANSPORT TIME STEP    17 IN FLOW TIME STEP     1 STRESS PERIOD     1
      1 TOTAL ITERATIONS
     1 CALLS TO GCG PACKAGE FOR TRANSPORT TIME STEP    18 IN FLOW TIME STEP     1 STRESS PERIOD     1
      1 TOTAL ITERATIONS
     1 CALLS TO GCG PACKAGE FOR TRANSPORT TIME STEP    19 IN FLOW TIME STEP     1 STRESS PERIOD     1
      1 TOTAL ITERATIONS
     1 CALLS TO GCG PACKAGE FOR TRANSPORT TIME STEP    20 IN FLOW TIME STEP     1 STRESS PERIOD     1
      1 TOTAL ITERATIONS
     1 CALLS TO GCG PACKAGE FOR TRANSPORT TIME STEP    21 IN FLOW TIME STEP     1 STRESS PERIOD     1
      1 TOTAL ITERATIONS
     1 CALLS TO GCG PACKAGE FOR TRANSPORT TIME STEP    22 IN FLOW TIME STEP     1 STRESS PERIOD     1
      1 TOTAL ITERATIONS
     1 CALLS TO GCG PACKAGE FOR TRANSPORT TIME STEP    23 IN FLOW TIME STEP     1 STRESS PERIOD     1
      1 TOTAL ITERATIONS
     1 CALLS TO GCG PACKAGE FOR TRANSPORT TIME STEP    24 IN FLOW TIME STEP     1 STRESS PERIOD     1
      1 TOTAL ITERATIONS
     1 CALLS TO GCG PACKAGE FOR TRANSPORT TIME STEP    25 IN FLOW TIME STEP     1 STRESS PERIOD     1
      1 TOTAL ITERATIONS
     1 CALLS TO GCG PACKAGE FOR TRANSPORT TIME STEP    26 IN FLOW TIME STEP     1 STRESS PERIOD     1
      1 TOTAL ITERATIONS
     1 CALLS TO GCG PACKAGE FOR TRANSPORT TIME STEP    27 IN FLOW TIME STEP     1 STRESS PERIOD     1
      1 TOTAL ITERATIONS
     1 CALLS TO GCG PACKAGE FOR TRANSPORT TIME STEP    28 IN FLOW TIME STEP     1 STRESS PERIOD     1
      1 TOTAL ITERATIONS
     1 CALLS TO GCG PACKAGE FOR TRANSPORT TIME STEP    29 IN FLOW TIME STEP     1 STRESS PERIOD     1
      1 TOTAL ITERATIONS
     1 CALLS TO GCG PACKAGE FOR TRANSPORT TIME STEP    30 IN FLOW TIME STEP     1 STRESS PERIOD     1
      1 TOTAL ITERATIONS
     1 CALLS TO GCG PACKAGE FOR TRANSPORT TIME STEP    31 IN FLOW TIME STEP     1 STRESS PERIOD     1
      1 TOTAL ITERATIONS
     1 CALLS TO GCG PACKAGE FOR TRANSPORT TIME STEP    32 IN FLOW TIME STEP     1 STRESS PERIOD     1
      1 TOTAL ITERATIONS
     1 CALLS TO GCG PACKAGE FOR TRANSPORT TIME STEP    33 IN FLOW TIME STEP     1 STRESS PERIOD     1
      1 TOTAL ITERATIONS
     1 CALLS TO GCG PACKAGE FOR TRANSPORT TIME STEP    34 IN FLOW TIME STEP     1 STRESS PERIOD     1
      1 TOTAL ITERATIONS
     1 CALLS TO GCG PACKAGE FOR TRANSPORT TIME STEP    35 IN FLOW TIME STEP     1 STRESS PERIOD     1
      1 TOTAL ITERATIONS
     1 CALLS TO GCG PACKAGE FOR TRANSPORT TIME STEP    36 IN FLOW TIME STEP     1 STRESS PERIOD     1
      1 TOTAL ITERATIONS
     1 CALLS TO GCG PACKAGE FOR TRANSPORT TIME STEP    37 IN FLOW TIME STEP     1 STRESS PERIOD     1
      1 TOTAL ITERATIONS
     1 CALLS TO GCG PACKAGE FOR TRANSPORT TIME STEP    38 IN FLOW TIME STEP     1 STRESS PERIOD     1
      1 TOTAL ITERATIONS
     1 CALLS TO GCG PACKAGE FOR TRANSPORT TIME STEP    39 IN FLOW TIME STEP     1 STRESS PERIOD     1
      1 TOTAL ITERATIONS
     1 CALLS TO GCG PACKAGE FOR TRANSPORT TIME STEP    40 IN FLOW TIME STEP     1 STRESS PERIOD     1
      1 TOTAL ITERATIONS
     1 CALLS TO GCG PACKAGE FOR TRANSPORT TIME STEP    41 IN FLOW TIME STEP     1 STRESS PERIOD     1
      1 TOTAL ITERATIONS
     1 CALLS TO GCG PACKAGE FOR TRANSPORT TIME STEP    42 IN FLOW TIME STEP     1 STRESS PERIOD     1
      1 TOTAL ITERATIONS
     1 CALLS TO GCG PACKAGE FOR TRANSPORT TIME STEP    43 IN FLOW TIME STEP     1 STRESS PERIOD     1
      1 TOTAL ITERATIONS
     1 CALLS TO GCG PACKAGE FOR TRANSPORT TIME STEP    44 IN FLOW TIME STEP     1 STRESS PERIOD     1
      1 TOTAL ITERATIONS
     1 CALLS TO GCG PACKAGE FOR TRANSPORT TIME STEP    45 IN FLOW TIME STEP     1 STRESS PERIOD     1
      1 TOTAL ITERATIONS
     1 CALLS TO GCG PACKAGE FOR TRANSPORT TIME STEP    46 IN FLOW TIME STEP     1 STRESS PERIOD     1
      1 TOTAL ITERATIONS
     1 CALLS TO GCG PACKAGE FOR TRANSPORT TIME STEP    47 IN FLOW TIME STEP     1 STRESS PERIOD     1
      1 TOTAL ITERATIONS
     1 CALLS TO GCG PACKAGE FOR TRANSPORT TIME STEP    48 IN FLOW TIME STEP     1 STRESS PERIOD     1
      1 TOTAL ITERATIONS
     1 CALLS TO GCG PACKAGE FOR TRANSPORT TIME STEP    49 IN FLOW TIME STEP     1 STRESS PERIOD     1
      1 TOTAL ITERATIONS
     1 CALLS TO GCG PACKAGE FOR TRANSPORT TIME STEP    50 IN FLOW TIME STEP     1 STRESS PERIOD     1
      1 TOTAL ITERATIONS
     1 CALLS TO GCG PACKAGE FOR TRANSPORT TIME STEP    51 IN FLOW TIME STEP     1 STRESS PERIOD     1
      1 TOTAL ITERATIONS
     1 CALLS TO GCG PACKAGE FOR TRANSPORT TIME STEP    52 IN FLOW TIME STEP     1 STRESS PERIOD     1
      1 TOTAL ITERATIONS
     1 CALLS TO GCG PACKAGE FOR TRANSPORT TIME STEP    53 IN FLOW TIME STEP     1 STRESS PERIOD     1
      1 TOTAL ITERATIONS
     1 CALLS TO GCG PACKAGE FOR TRANSPORT TIME STEP    54 IN FLOW TIME STEP     1 STRESS PERIOD     1
      1 TOTAL ITERATIONS
     1 CALLS TO GCG PACKAGE FOR TRANSPORT TIME STEP    55 IN FLOW TIME STEP     1 STRESS PERIOD     1
      1 TOTAL ITERATIONS
     1 CALLS TO GCG PACKAGE FOR TRANSPORT TIME STEP    56 IN FLOW TIME STEP     1 STRESS PERIOD     1
      1 TOTAL ITERATIONS
     1 CALLS TO GCG PACKAGE FOR TRANSPORT TIME STEP    57 IN FLOW TIME STEP     1 STRESS PERIOD     1
      1 TOTAL ITERATIONS
     1 CALLS TO GCG PACKAGE FOR TRANSPORT TIME STEP    58 IN FLOW TIME STEP     1 STRESS PERIOD     1
      1 TOTAL ITERATIONS
     1 CALLS TO GCG PACKAGE FOR TRANSPORT TIME STEP    59 IN FLOW TIME STEP     1 STRESS PERIOD     1
      1 TOTAL ITERATIONS
     1 CALLS TO GCG PACKAGE FOR TRANSPORT TIME STEP    60 IN FLOW TIME STEP     1 STRESS PERIOD     1
      1 TOTAL ITERATIONS
     1 CALLS TO GCG PACKAGE FOR TRANSPORT TIME STEP    61 IN FLOW TIME STEP     1 STRESS PERIOD     1
      1 TOTAL ITERATIONS
     1 CALLS TO GCG PACKAGE FOR TRANSPORT TIME STEP    62 IN FLOW TIME STEP     1 STRESS PERIOD     1
      1 TOTAL ITERATIONS
     1 CALLS TO GCG PACKAGE FOR TRANSPORT TIME STEP    63 IN FLOW TIME STEP     1 STRESS PERIOD     1
      1 TOTAL ITERATIONS
     1 CALLS TO GCG PACKAGE FOR TRANSPORT TIME STEP    64 IN FLOW TIME STEP     1 STRESS PERIOD     1
      1 TOTAL ITERATIONS
     1 CALLS TO GCG PACKAGE FOR TRANSPORT TIME STEP    65 IN FLOW TIME STEP     1 STRESS PERIOD     1
      1 TOTAL ITERATIONS
     1 CALLS TO GCG PACKAGE FOR TRANSPORT TIME STEP    66 IN FLOW TIME STEP     1 STRESS PERIOD     1
      1 TOTAL ITERATIONS
     1 CALLS TO GCG PACKAGE FOR TRANSPORT TIME STEP    67 IN FLOW TIME STEP     1 STRESS PERIOD     1
      1 TOTAL ITERATIONS
     1 CALLS TO GCG PACKAGE FOR TRANSPORT TIME STEP    68 IN FLOW TIME STEP     1 STRESS PERIOD     1
      1 TOTAL ITERATIONS
     1 CALLS TO GCG PACKAGE FOR TRANSPORT TIME STEP    69 IN FLOW TIME STEP     1 STRESS PERIOD     1
      1 TOTAL ITERATIONS
     1 CALLS TO GCG PACKAGE FOR TRANSPORT TIME STEP    70 IN FLOW TIME STEP     1 STRESS PERIOD     1
      1 TOTAL ITERATIONS
     1 CALLS TO GCG PACKAGE FOR TRANSPORT TIME STEP    71 IN FLOW TIME STEP     1 STRESS PERIOD     1
      1 TOTAL ITERATIONS
     1 CALLS TO GCG PACKAGE FOR TRANSPORT TIME STEP    72 IN FLOW TIME STEP     1 STRESS PERIOD     1
      1 TOTAL ITERATIONS
     1 CALLS TO GCG PACKAGE FOR TRANSPORT TIME STEP    73 IN FLOW TIME STEP     1 STRESS PERIOD     1
      1 TOTAL ITERATIONS
     1 CALLS TO GCG PACKAGE FOR TRANSPORT TIME STEP    74 IN FLOW TIME STEP     1 STRESS PERIOD     1
      1 TOTAL ITERATIONS
     1 CALLS TO GCG PACKAGE FOR TRANSPORT TIME STEP    75 IN FLOW TIME STEP     1 STRESS PERIOD     1
      1 TOTAL ITERATIONS
     1 CALLS TO GCG PACKAGE FOR TRANSPORT TIME STEP    76 IN FLOW TIME STEP     1 STRESS PERIOD     1
      1 TOTAL ITERATIONS
     1 CALLS TO GCG PACKAGE FOR TRANSPORT TIME STEP    77 IN FLOW TIME STEP     1 STRESS PERIOD     1
      1 TOTAL ITERATIONS
     1 CALLS TO GCG PACKAGE FOR TRANSPORT TIME STEP    78 IN FLOW TIME STEP     1 STRESS PERIOD     1
      1 TOTAL ITERATIONS
     1 CALLS TO GCG PACKAGE FOR TRANSPORT TIME STEP    79 IN FLOW TIME STEP     1 STRESS PERIOD     1
      1 TOTAL ITERATIONS
     1 CALLS TO GCG PACKAGE FOR TRANSPORT TIME STEP    80 IN FLOW TIME STEP     1 STRESS PERIOD     1
      1 TOTAL ITERATIONS
     1 CALLS TO GCG PACKAGE FOR TRANSPORT TIME STEP    81 IN FLOW TIME STEP     1 STRESS PERIOD     1
      1 TOTAL ITERATIONS
     1 CALLS TO GCG PACKAGE FOR TRANSPORT TIME STEP    82 IN FLOW TIME STEP     1 STRESS PERIOD     1
      1 TOTAL ITERATIONS
     1 CALLS TO GCG PACKAGE FOR TRANSPORT TIME STEP    83 IN FLOW TIME STEP     1 STRESS PERIOD     1
      1 TOTAL ITERATIONS
     1 CALLS TO GCG PACKAGE FOR TRANSPORT TIME STEP    84 IN FLOW TIME STEP     1 STRESS PERIOD     1
      1 TOTAL ITERATIONS
     1 CALLS TO GCG PACKAGE FOR TRANSPORT TIME STEP    85 IN FLOW TIME STEP     1 STRESS PERIOD     1
      1 TOTAL ITERATIONS
     1 CALLS TO GCG PACKAGE FOR TRANSPORT TIME STEP    86 IN FLOW TIME STEP     1 STRESS PERIOD     1
      1 TOTAL ITERATIONS
     1 CALLS TO GCG PACKAGE FOR TRANSPORT TIME STEP    87 IN FLOW TIME STEP     1 STRESS PERIOD     1
      1 TOTAL ITERATIONS
     1 CALLS TO GCG PACKAGE FOR TRANSPORT TIME STEP    88 IN FLOW TIME STEP     1 STRESS PERIOD     1
      1 TOTAL ITERATIONS
     1 CALLS TO GCG PACKAGE FOR TRANSPORT TIME STEP    89 IN FLOW TIME STEP     1 STRESS PERIOD     1
      1 TOTAL ITERATIONS
     1 CALLS TO GCG PACKAGE FOR TRANSPORT TIME STEP    90 IN FLOW TIME STEP     1 STRESS PERIOD     1
      1 TOTAL ITERATIONS
     1 CALLS TO GCG PACKAGE FOR TRANSPORT TIME STEP    91 IN FLOW TIME STEP     1 STRESS PERIOD     1
      1 TOTAL ITERATIONS
     1 CALLS TO GCG PACKAGE FOR TRANSPORT TIME STEP    92 IN FLOW TIME STEP     1 STRESS PERIOD     1
      1 TOTAL ITERATIONS
     1 CALLS TO GCG PACKAGE FOR TRANSPORT TIME STEP    93 IN FLOW TIME STEP     1 STRESS PERIOD     1
      1 TOTAL ITERATIONS
     1 CALLS TO GCG PACKAGE FOR TRANSPORT TIME STEP    94 IN FLOW TIME STEP     1 STRESS PERIOD     1
      1 TOTAL ITERATIONS
     1 CALLS TO GCG PACKAGE FOR TRANSPORT TIME STEP    95 IN FLOW TIME STEP     1 STRESS PERIOD     1
      1 TOTAL ITERATIONS
     1 CALLS TO GCG PACKAGE FOR TRANSPORT TIME STEP    96 IN FLOW TIME STEP     1 STRESS PERIOD     1
      1 TOTAL ITERATIONS
     1 CALLS TO GCG PACKAGE FOR TRANSPORT TIME STEP    97 IN FLOW TIME STEP     1 STRESS PERIOD     1
      1 TOTAL ITERATIONS
     1 CALLS TO GCG PACKAGE FOR TRANSPORT TIME STEP    98 IN FLOW TIME STEP     1 STRESS PERIOD     1
      1 TOTAL ITERATIONS
     1 CALLS TO GCG PACKAGE FOR TRANSPORT TIME STEP    99 IN FLOW TIME STEP     1 STRESS PERIOD     1
      1 TOTAL ITERATIONS
     1 CALLS TO GCG PACKAGE FOR TRANSPORT TIME STEP   100 IN FLOW TIME STEP     1 STRESS PERIOD     1
      1 TOTAL ITERATIONS
     1 CALLS TO GCG PACKAGE FOR TRANSPORT TIME STEP   101 IN FLOW TIME STEP     1 STRESS PERIOD     1
      1 TOTAL ITERATIONS
     1 CALLS TO GCG PACKAGE FOR TRANSPORT TIME STEP   102 IN FLOW TIME STEP     1 STRESS PERIOD     1
      1 TOTAL ITERATIONS
     1 CALLS TO GCG PACKAGE FOR TRANSPORT TIME STEP   103 IN FLOW TIME STEP     1 STRESS PERIOD     1
      1 TOTAL ITERATIONS
     1 CALLS TO GCG PACKAGE FOR TRANSPORT TIME STEP   104 IN FLOW TIME STEP     1 STRESS PERIOD     1
      1 TOTAL ITERATIONS
     1 CALLS TO GCG PACKAGE FOR TRANSPORT TIME STEP   105 IN FLOW TIME STEP     1 STRESS PERIOD     1
      1 TOTAL ITERATIONS
     1 CALLS TO GCG PACKAGE FOR TRANSPORT TIME STEP   106 IN FLOW TIME STEP     1 STRESS PERIOD     1
      1 TOTAL ITERATIONS
     1 CALLS TO GCG PACKAGE FOR TRANSPORT TIME STEP   107 IN FLOW TIME STEP     1 STRESS PERIOD     1
      1 TOTAL ITERATIONS
     1 CALLS TO GCG PACKAGE FOR TRANSPORT TIME STEP   108 IN FLOW TIME STEP     1 STRESS PERIOD     1
      1 TOTAL ITERATIONS
     1 CALLS TO GCG PACKAGE FOR TRANSPORT TIME STEP   109 IN FLOW TIME STEP     1 STRESS PERIOD     1
      1 TOTAL ITERATIONS
     1 CALLS TO GCG PACKAGE FOR TRANSPORT TIME STEP   110 IN FLOW TIME STEP     1 STRESS PERIOD     1
      1 TOTAL ITERATIONS
     1 CALLS TO GCG PACKAGE FOR TRANSPORT TIME STEP   111 IN FLOW TIME STEP     1 STRESS PERIOD     1
      1 TOTAL ITERATIONS
     1 CALLS TO GCG PACKAGE FOR TRANSPORT TIME STEP   112 IN FLOW TIME STEP     1 STRESS PERIOD     1
      1 TOTAL ITERATIONS
     1 CALLS TO GCG PACKAGE FOR TRANSPORT TIME STEP   113 IN FLOW TIME STEP     1 STRESS PERIOD     1
      1 TOTAL ITERATIONS
     1 CALLS TO GCG PACKAGE FOR TRANSPORT TIME STEP   114 IN FLOW TIME STEP     1 STRESS PERIOD     1
      1 TOTAL ITERATIONS
     1 CALLS TO GCG PACKAGE FOR TRANSPORT TIME STEP   115 IN FLOW TIME STEP     1 STRESS PERIOD     1
      1 TOTAL ITERATIONS
     1 CALLS TO GCG PACKAGE FOR TRANSPORT TIME STEP   116 IN FLOW TIME STEP     1 STRESS PERIOD     1
      1 TOTAL ITERATIONS
     1 CALLS TO GCG PACKAGE FOR TRANSPORT TIME STEP   117 IN FLOW TIME STEP     1 STRESS PERIOD     1
      1 TOTAL ITERATIONS
     1 CALLS TO GCG PACKAGE FOR TRANSPORT TIME STEP   118 IN FLOW TIME STEP     1 STRESS PERIOD     1
      1 TOTAL ITERATIONS
     1 CALLS TO GCG PACKAGE FOR TRANSPORT TIME STEP   119 IN FLOW TIME STEP     1 STRESS PERIOD     1
      1 TOTAL ITERATIONS
     1 CALLS TO GCG PACKAGE FOR TRANSPORT TIME STEP   120 IN FLOW TIME STEP     1 STRESS PERIOD     1
      1 TOTAL ITERATIONS
     1 CALLS TO GCG PACKAGE FOR TRANSPORT TIME STEP   121 IN FLOW TIME STEP     1 STRESS PERIOD     1
      1 TOTAL ITERATIONS
     1 CALLS TO GCG PACKAGE FOR TRANSPORT TIME STEP   122 IN FLOW TIME STEP     1 STRESS PERIOD     1
      1 TOTAL ITERATIONS
     1 CALLS TO GCG PACKAGE FOR TRANSPORT TIME STEP   123 IN FLOW TIME STEP     1 STRESS PERIOD     1
      1 TOTAL ITERATIONS
     1 CALLS TO GCG PACKAGE FOR TRANSPORT TIME STEP   124 IN FLOW TIME STEP     1 STRESS PERIOD     1
      1 TOTAL ITERATIONS
     1 CALLS TO GCG PACKAGE FOR TRANSPORT TIME STEP   125 IN FLOW TIME STEP     1 STRESS PERIOD     1
      1 TOTAL ITERATIONS
     1 CALLS TO GCG PACKAGE FOR TRANSPORT TIME STEP   126 IN FLOW TIME STEP     1 STRESS PERIOD     1
      1 TOTAL ITERATIONS
     1 CALLS TO GCG PACKAGE FOR TRANSPORT TIME STEP   127 IN FLOW TIME STEP     1 STRESS PERIOD     1
      1 TOTAL ITERATIONS
     1 CALLS TO GCG PACKAGE FOR TRANSPORT TIME STEP   128 IN FLOW TIME STEP     1 STRESS PERIOD     1
      1 TOTAL ITERATIONS
     1 CALLS TO GCG PACKAGE FOR TRANSPORT TIME STEP   129 IN FLOW TIME STEP     1 STRESS PERIOD     1
      1 TOTAL ITERATIONS
     1 CALLS TO GCG PACKAGE FOR TRANSPORT TIME STEP   130 IN FLOW TIME STEP     1 STRESS PERIOD     1
      1 TOTAL ITERATIONS
     1 CALLS TO GCG PACKAGE FOR TRANSPORT TIME STEP   131 IN FLOW TIME STEP     1 STRESS PERIOD     1
      1 TOTAL ITERATIONS
     1 CALLS TO GCG PACKAGE FOR TRANSPORT TIME STEP   132 IN FLOW TIME STEP     1 STRESS PERIOD     1
      1 TOTAL ITERATIONS
     1 CALLS TO GCG PACKAGE FOR TRANSPORT TIME STEP   133 IN FLOW TIME STEP     1 STRESS PERIOD     1
      1 TOTAL ITERATIONS
     1 CALLS TO GCG PACKAGE FOR TRANSPORT TIME STEP   134 IN FLOW TIME STEP     1 STRESS PERIOD     1
      1 TOTAL ITERATIONS
     1 CALLS TO GCG PACKAGE FOR TRANSPORT TIME STEP   135 IN FLOW TIME STEP     1 STRESS PERIOD     1
      1 TOTAL ITERATIONS
     1 CALLS TO GCG PACKAGE FOR TRANSPORT TIME STEP   136 IN FLOW TIME STEP     1 STRESS PERIOD     1
      1 TOTAL ITERATIONS
  MAXIMUM CONCENTRATION CHANGES FOR EACH ITERATION:
  MAX. CHANGE LAYER,ROW,COL MAX. CHANGE LAYER,ROW,COL MAX. CHANGE LAYER,ROW,COL MAX. CHANGE LAYER,ROW,COL MAX. CHANGE LAYER,ROW,COL
 ------------------------------------------------------------------------------------------------------------------------------------
    0.000     (  1,  1,  1)


                     STREAM MASS BUDGETS AT END OF TRANSPORT STEP  136, TIME STEP    1, STRESS PERIOD    1 FOR COMPONENT   1
                     -------------------------------------------------------------------------------------------------------

                                         CUMULATIVE MASS [M]                                     MASS FOR THIS TIME STEP [M]
                                         -------------------                                    --------------
                      STREAM DEPLETION =   0.000000                          STREAM DEPLETION =   0.000000    
                      INFLOW TO STREAM =   0.000000                          INFLOW TO STREAM =   0.000000    
                          GW TO STREAM =   0.000000                              GW TO STREAM =   0.000000    
                         PRECIPITATION =   0.000000                             PRECIPITATION =   0.000000    
                                RUNOFF =   0.000000                                    RUNOFF =   0.000000    
                CONSTANT CONCENTRATION =   0.000000                    CONSTANT CONCENTRATION =   0.000000    
                                         -------------------                                    --------------
                              TOTAL IN =  0.1000000E-09                              TOTAL IN =  0.1000000E-09

                   STREAM ACCUMULATION =   0.000000                       STREAM ACCUMULATION =   0.000000    
                        STREAM OUTFLOW =   0.000000                            STREAM OUTFLOW =   0.000000    
                          STREAM TO GW =   0.000000                              STREAM TO GW =   0.000000    
                CONSTANT CONCENTRATION =   0.000000                    CONSTANT CONCENTRATION =   0.000000    
                                         -------------------                                    --------------
                             TOTAL OUT =   0.000000                                 TOTAL OUT =   0.000000    

                        NET (IN - OUT) =   0.000000                            NET (IN - OUT) =   0.000000    
                 DISCREPANCY (PERCENT) =   0.000000                     DISCREPANCY (PERCENT) =   0.000000    
                                              FLOW ERR (QIN-QOUT-DV) =  0.3906250E-02 [L3/T]




 >>>>>>>>>>>>>>>>>>>>>>>>>>>>>>>>>>>>>>>>>>>>>>>>>>>>>>>FOR COMPONENT NO. 01<<<<<<<<<<<<<<<<<<<<<<<<<<<<<<<<<<<<<<<<<<<<<<<<<<<<<<<


                                            -------------------------------------------
                                                      TRANSPORT STEP NO.  136
                                            -------------------------------------------

 TOTAL ELAPSED TIME SINCE BEGINNING OF SIMULATION =   3650.000    D   
 .....................................................................

                     CUMULATIVE MASS BUDGETS AT END OF TRANSPORT STEP  136, TIME STEP    1, STRESS PERIOD    1
                     -----------------------------------------------------------------------------------------

                                                             IN                           OUT
                                                      ----------------             ----------------
                               CONSTANT CONCENTRATION:    0.000000                    0.000000    
                                        CONSTANT HEAD:    0.000000                    0.000000    
                                                WELLS:    0.000000                    0.000000    
                                             RECHARGE:    0.000000                    0.000000    
                                               STREAM:    0.000000                    0.000000    
                               1ST/0TH ORDER REACTION:    0.000000                    0.000000    
                               MASS STOR (FLOW MODEL):    0.000000                    0.000000    
                                MASS STORAGE (SOLUTE):    0.000000                    0.000000    
                            ---------------------------------------------------------------------------
                                              [TOTAL]:    0.000000     KG             0.000000     KG  

                                                          NET (IN - OUT):    0.000000    
                                                   DISCREPANCY (PERCENT):    0.000000    
  ----- 
 | M T |
 | 3 D | END OF MODEL OUTPUT
  ----- 
