             PEST++ Version 3.7.0

                 by Dave Welter
     Computational Water Resource Engineering



using control file: "freyberg.pst"

noptmax = 0, resetting max_run_fail = 1

PEST++ run mode:- 
   WTF

Case dimensions:- 
    Number of parameters = 3529
    Number of adjustable parameters = 3529
    Number of observations = 1573
    Number of prior estimates = 0

PEST Control Information
    relparmax = 10
    facparmax = 10
    facorig = 0.001
    phiredswh = 0.1
    noptmax = 0
    phiredstp = 0.01
    nphistp = 3
    nphinored = 3
    relparstp = 0.01
    nrelpar = 3

PEST++ Options
    n_iter_base = 1                   
    n_iter_super = 0                   
    max_n_super = 3529                
    super eigthres = 1e-06               
    svd pack = 2                   
    auto norm = -999                
    super relparmax = 0.1                 
    max super frz iter = 5                   
    mat inv = 1                   
    max run fail = 1                   
    max reg iter = 20                  
    use jacobian scaling a la PEST? =  yes
    lambdas = 
            0.1
              1
             10
            100
           1000
    lambda scaling factors = 
              1
    using FOSM-based uncertainty estimation for parameters
    parameter covariance file =                     
    derivative run failure forgive = 1              
    run overdue reschedule factor = 1.15                
    run overdue giveup factor = 100                 
    base parameter jacobian filename =                     
    prior parameter covariance upgrade scaling factor = -999      


Model command line(s):- 
    python forward_run.py

Model interface files:-
    template files:
      hk0.dat_gr.tpl
      rech0.dat_gr.tpl
      prst0.dat_gr.tpl
      rc110.dat_gr.tpl
      hk1.dat_cn.tpl
      rech1.dat_cn.tpl
      prst1.dat_cn.tpl
      rc111.dat_cn.tpl
      sfr_seg_pars.dat.tpl
      freyberg.mt3d.ssm.tpl
    model input files:
      arr_mlt/hk0.dat_gr
      arr_mlt/rech0.dat_gr
      arr_mlt/prst0.dat_gr
      arr_mlt/rc110.dat_gr
      arr_mlt/hk1.dat_cn
      arr_mlt/rech1.dat_cn
      arr_mlt/prst1.dat_cn
      arr_mlt/rc111.dat_cn
      sfr_seg_pars.dat
      freyberg.mt3d.ssm

    instruction files:
      flux.dat.ins
      freyberg.hds.dat.ins
      vol.dat.ins
      mtlist_gw.dat.ins
      mtlist_sw.dat.ins
      freyberg.mt3d.processed.ins
      MT3D001.ucn.dat.ins
    model output files:
      flux.dat
      freyberg.hds.dat
      vol.dat
      mtlist_gw.dat
      mtlist_sw.dat
      freyberg.mt3d.processed
      MT3D001.ucn.dat


Parameter group information
NAME            INCREMENT TYPE     DERIVATIVE INCREMENT    INCREMENT LOWER BOUND  FORCE CENTRAL     INCREMENT MULTIPLIER
kg                    ABSOLUTE                        1                        0         SWITCH                        2
grprst0               RELATIVE                     0.01                        0         SWITCH                        2
grrech0               RELATIVE                     0.01                        0         SWITCH                        2
grhk0                 RELATIVE                     0.01                        0         SWITCH                        2
grrc110               RELATIVE                     0.01                        0         SWITCH                        2
hcond1                RELATIVE                     0.01                        0         SWITCH                        2
cn                    RELATIVE                     0.01                        0         SWITCH                        2



Parameter information
NAME           TRANSFORMATION        CHANGE LIMIT  INITIAL VALUE    LOWER BOUND    UPPER BOUND          GROUP          SCALE         OFFSET  DERIVATIVE COMMAND
hk1_cn         log                     FACTOR              1           0.01            100             cn              1              0                   1
prst1_cn       log                     FACTOR              1            0.1             10             cn              1              0                   1
rc111_cn       log                     FACTOR              1            0.1             10             cn              1              0                   1
rech1_cn       log                     FACTOR              1            0.9            1.1             cn              1              0                   1
hk0000000      log                     FACTOR              1           0.01            100          grhk0              1              0                   1
hk0000001      log                     FACTOR              1           0.01            100          grhk0              1              0                   1
hk0000002      log                     FACTOR              1           0.01            100          grhk0              1              0                   1
hk0000003      log                     FACTOR              1           0.01            100          grhk0              1              0                   1
hk0000004      log                     FACTOR              1           0.01            100          grhk0              1              0                   1
hk0000005      log                     FACTOR              1           0.01            100          grhk0              1              0                   1
hk0000006      log                     FACTOR              1           0.01            100          grhk0              1              0                   1
hk0000007      log                     FACTOR              1           0.01            100          grhk0              1              0                   1
hk0000008      log                     FACTOR              1           0.01            100          grhk0              1              0                   1
hk0000009      log                     FACTOR              1           0.01            100          grhk0              1              0                   1
hk0000010      log                     FACTOR              1           0.01            100          grhk0              1              0                   1
hk0000011      log                     FACTOR              1           0.01            100          grhk0              1              0                   1
hk0000012      log                     FACTOR              1           0.01            100          grhk0              1              0                   1
hk0000013      log                     FACTOR              1           0.01            100          grhk0              1              0                   1
hk0000014      log                     FACTOR              1           0.01            100          grhk0              1              0                   1
hk0000015      log                     FACTOR              1           0.01            100          grhk0              1              0                   1
hk0000016      log                     FACTOR              1           0.01            100          grhk0              1              0                   1
hk0000017      log                     FACTOR              1           0.01            100          grhk0              1              0                   1
hk0000018      log                     FACTOR              1           0.01            100          grhk0              1              0                   1
hk0000019      log                     FACTOR              1           0.01            100          grhk0              1              0                   1
hk0001000      log                     FACTOR              1           0.01            100          grhk0              1              0                   1
hk0001001      log                     FACTOR              1           0.01            100          grhk0              1              0                   1
hk0001002      log                     FACTOR              1           0.01            100          grhk0              1              0                   1
hk0001003      log                     FACTOR              1           0.01            100          grhk0              1              0                   1
hk0001004      log                     FACTOR              1           0.01            100          grhk0              1              0                   1
hk0001005      log                     FACTOR              1           0.01            100          grhk0              1              0                   1
hk0001006      log                     FACTOR              1           0.01            100          grhk0              1              0                   1
hk0001007      log                     FACTOR              1           0.01            100          grhk0              1              0                   1
hk0001008      log                     FACTOR              1           0.01            100          grhk0              1              0                   1
hk0001009      log                     FACTOR              1           0.01            100          grhk0              1              0                   1
hk0001010      log                     FACTOR              1           0.01            100          grhk0              1              0                   1
hk0001011      log                     FACTOR              1           0.01            100          grhk0              1              0                   1
hk0001012      log                     FACTOR              1           0.01            100          grhk0              1              0                   1
hk0001013      log                     FACTOR              1           0.01            100          grhk0              1              0                   1
hk0001014      log                     FACTOR              1           0.01            100          grhk0              1              0                   1
hk0001015      log                     FACTOR              1           0.01            100          grhk0              1              0                   1
hk0001016      log                     FACTOR              1           0.01            100          grhk0              1              0                   1
hk0001017      log                     FACTOR              1           0.01            100          grhk0              1              0                   1
hk0001018      log                     FACTOR              1           0.01            100          grhk0              1              0                   1
hk0001019      log                     FACTOR              1           0.01            100          grhk0              1              0                   1
hk0002000      log                     FACTOR              1           0.01            100          grhk0              1              0                   1
hk0002001      log                     FACTOR              1           0.01            100          grhk0              1              0                   1
hk0002002      log                     FACTOR              1           0.01            100          grhk0              1              0                   1
hk0002003      log                     FACTOR              1           0.01            100          grhk0              1              0                   1
hk0002004      log                     FACTOR              1           0.01            100          grhk0              1              0                   1
hk0002005      log                     FACTOR              1           0.01            100          grhk0              1              0                   1
hk0002006      log                     FACTOR              1           0.01            100          grhk0              1              0                   1
hk0002007      log                     FACTOR              1           0.01            100          grhk0              1              0                   1
hk0002008      log                     FACTOR              1           0.01            100          grhk0              1              0                   1
hk0002009      log                     FACTOR              1           0.01            100          grhk0              1              0                   1
hk0002010      log                     FACTOR              1           0.01            100          grhk0              1              0                   1
hk0002011      log                     FACTOR              1           0.01            100          grhk0              1              0                   1
hk0002012      log                     FACTOR              1           0.01            100          grhk0              1              0                   1
hk0002013      log                     FACTOR              1           0.01            100          grhk0              1              0                   1
hk0002014      log                     FACTOR              1           0.01            100          grhk0              1              0                   1
hk0002015      log                     FACTOR              1           0.01            100          grhk0              1              0                   1
hk0002016      log                     FACTOR              1           0.01            100          grhk0              1              0                   1
hk0002017      log                     FACTOR              1           0.01            100          grhk0              1              0                   1
hk0002018      log                     FACTOR              1           0.01            100          grhk0              1              0                   1
hk0002019      log                     FACTOR              1           0.01            100          grhk0              1              0                   1
hk0003000      log                     FACTOR              1           0.01            100          grhk0              1              0                   1
hk0003001      log                     FACTOR              1           0.01            100          grhk0              1              0                   1
hk0003002      log                     FACTOR              1           0.01            100          grhk0              1              0                   1
hk0003003      log                     FACTOR              1           0.01            100          grhk0              1              0                   1
hk0003004      log                     FACTOR              1           0.01            100          grhk0              1              0                   1
hk0003005      log                     FACTOR              1           0.01            100          grhk0              1              0                   1
hk0003006      log                     FACTOR              1           0.01            100          grhk0              1              0                   1
hk0003007      log                     FACTOR              1           0.01            100          grhk0              1              0                   1
hk0003008      log                     FACTOR              1           0.01            100          grhk0              1              0                   1
hk0003009      log                     FACTOR              1           0.01            100          grhk0              1              0                   1
hk0003010      log                     FACTOR              1           0.01            100          grhk0              1              0                   1
hk0003011      log                     FACTOR              1           0.01            100          grhk0              1              0                   1
hk0003012      log                     FACTOR              1           0.01            100          grhk0              1              0                   1
hk0003013      log                     FACTOR              1           0.01            100          grhk0              1              0                   1
hk0003014      log                     FACTOR              1           0.01            100          grhk0              1              0                   1
hk0003015      log                     FACTOR              1           0.01            100          grhk0              1              0                   1
hk0003016      log                     FACTOR              1           0.01            100          grhk0              1              0                   1
hk0003017      log                     FACTOR              1           0.01            100          grhk0              1              0                   1
hk0003018      log                     FACTOR              1           0.01            100          grhk0              1              0                   1
hk0003019      log                     FACTOR              1           0.01            100          grhk0              1              0                   1
hk0004000      log                     FACTOR              1           0.01            100          grhk0              1              0                   1
hk0004001      log                     FACTOR              1           0.01            100          grhk0              1              0                   1
hk0004002      log                     FACTOR              1           0.01            100          grhk0              1              0                   1
hk0004003      log                     FACTOR              1           0.01            100          grhk0              1              0                   1
hk0004004      log                     FACTOR              1           0.01            100          grhk0              1              0                   1
hk0004005      log                     FACTOR              1           0.01            100          grhk0              1              0                   1
hk0004006      log                     FACTOR              1           0.01            100          grhk0              1              0                   1
hk0004007      log                     FACTOR              1           0.01            100          grhk0              1              0                   1
hk0004008      log                     FACTOR              1           0.01            100          grhk0              1              0                   1
hk0004009      log                     FACTOR              1           0.01            100          grhk0              1              0                   1
hk0004010      log                     FACTOR              1           0.01            100          grhk0              1              0                   1
hk0004011      log                     FACTOR              1           0.01            100          grhk0              1              0                   1
hk0004012      log                     FACTOR              1           0.01            100          grhk0              1              0                   1
hk0004013      log                     FACTOR              1           0.01            100          grhk0              1              0                   1
hk0004014      log                     FACTOR              1           0.01            100          grhk0              1              0                   1
hk0004015      log                     FACTOR              1           0.01            100          grhk0              1              0                   1
hk0004016      log                     FACTOR              1           0.01            100          grhk0              1              0                   1
hk0004017      log                     FACTOR              1           0.01            100          grhk0              1              0                   1
hk0004018      log                     FACTOR              1           0.01            100          grhk0              1              0                   1
hk0004019      log                     FACTOR              1           0.01            100          grhk0              1              0                   1
hk0005000      log                     FACTOR              1           0.01            100          grhk0              1              0                   1
hk0005001      log                     FACTOR              1           0.01            100          grhk0              1              0                   1
hk0005002      log                     FACTOR              1           0.01            100          grhk0              1              0                   1
hk0005003      log                     FACTOR              1           0.01            100          grhk0              1              0                   1
hk0005004      log                     FACTOR              1           0.01            100          grhk0              1              0                   1
hk0005005      log                     FACTOR              1           0.01            100          grhk0              1              0                   1
hk0005006      log                     FACTOR              1           0.01            100          grhk0              1              0                   1
hk0005007      log                     FACTOR              1           0.01            100          grhk0              1              0                   1
hk0005008      log                     FACTOR              1           0.01            100          grhk0              1              0                   1
hk0005009      log                     FACTOR              1           0.01            100          grhk0              1              0                   1
hk0005010      log                     FACTOR              1           0.01            100          grhk0              1              0                   1
hk0005011      log                     FACTOR              1           0.01            100          grhk0              1              0                   1
hk0005012      log                     FACTOR              1           0.01            100          grhk0              1              0                   1
hk0005013      log                     FACTOR              1           0.01            100          grhk0              1              0                   1
hk0005014      log                     FACTOR              1           0.01            100          grhk0              1              0                   1
hk0005015      log                     FACTOR              1           0.01            100          grhk0              1              0                   1
hk0005016      log                     FACTOR              1           0.01            100          grhk0              1              0                   1
hk0005017      log                     FACTOR              1           0.01            100          grhk0              1              0                   1
hk0005018      log                     FACTOR              1           0.01            100          grhk0              1              0                   1
hk0005019      log                     FACTOR              1           0.01            100          grhk0              1              0                   1
hk0006000      log                     FACTOR              1           0.01            100          grhk0              1              0                   1
hk0006001      log                     FACTOR              1           0.01            100          grhk0              1              0                   1
hk0006002      log                     FACTOR              1           0.01            100          grhk0              1              0                   1
hk0006003      log                     FACTOR              1           0.01            100          grhk0              1              0                   1
hk0006004      log                     FACTOR              1           0.01            100          grhk0              1              0                   1
hk0006005      log                     FACTOR              1           0.01            100          grhk0              1              0                   1
hk0006006      log                     FACTOR              1           0.01            100          grhk0              1              0                   1
hk0006007      log                     FACTOR              1           0.01            100          grhk0              1              0                   1
hk0006008      log                     FACTOR              1           0.01            100          grhk0              1              0                   1
hk0006009      log                     FACTOR              1           0.01            100          grhk0              1              0                   1
hk0006010      log                     FACTOR              1           0.01            100          grhk0              1              0                   1
hk0006011      log                     FACTOR              1           0.01            100          grhk0              1              0                   1
hk0006012      log                     FACTOR              1           0.01            100          grhk0              1              0                   1
hk0006013      log                     FACTOR              1           0.01            100          grhk0              1              0                   1
hk0006014      log                     FACTOR              1           0.01            100          grhk0              1              0                   1
hk0006015      log                     FACTOR              1           0.01            100          grhk0              1              0                   1
hk0006016      log                     FACTOR              1           0.01            100          grhk0              1              0                   1
hk0006017      log                     FACTOR              1           0.01            100          grhk0              1              0                   1
hk0006018      log                     FACTOR              1           0.01            100          grhk0              1              0                   1
hk0006019      log                     FACTOR              1           0.01            100          grhk0              1              0                   1
hk0007000      log                     FACTOR              1           0.01            100          grhk0              1              0                   1
hk0007001      log                     FACTOR              1           0.01            100          grhk0              1              0                   1
hk0007002      log                     FACTOR              1           0.01            100          grhk0              1              0                   1
hk0007003      log                     FACTOR              1           0.01            100          grhk0              1              0                   1
hk0007004      log                     FACTOR              1           0.01            100          grhk0              1              0                   1
hk0007005      log                     FACTOR              1           0.01            100          grhk0              1              0                   1
hk0007006      log                     FACTOR              1           0.01            100          grhk0              1              0                   1
hk0007007      log                     FACTOR              1           0.01            100          grhk0              1              0                   1
hk0007008      log                     FACTOR              1           0.01            100          grhk0              1              0                   1
hk0007009      log                     FACTOR              1           0.01            100          grhk0              1              0                   1
hk0007010      log                     FACTOR              1           0.01            100          grhk0              1              0                   1
hk0007011      log                     FACTOR              1           0.01            100          grhk0              1              0                   1
hk0007012      log                     FACTOR              1           0.01            100          grhk0              1              0                   1
hk0007013      log                     FACTOR              1           0.01            100          grhk0              1              0                   1
hk0007014      log                     FACTOR              1           0.01            100          grhk0              1              0                   1
hk0007015      log                     FACTOR              1           0.01            100          grhk0              1              0                   1
hk0007016      log                     FACTOR              1           0.01            100          grhk0              1              0                   1
hk0007017      log                     FACTOR              1           0.01            100          grhk0              1              0                   1
hk0007018      log                     FACTOR              1           0.01            100          grhk0              1              0                   1
hk0007019      log                     FACTOR              1           0.01            100          grhk0              1              0                   1
hk0008000      log                     FACTOR              1           0.01            100          grhk0              1              0                   1
hk0008001      log                     FACTOR              1           0.01            100          grhk0              1              0                   1
hk0008002      log                     FACTOR              1           0.01            100          grhk0              1              0                   1
hk0008003      log                     FACTOR              1           0.01            100          grhk0              1              0                   1
hk0008007      log                     FACTOR              1           0.01            100          grhk0              1              0                   1
hk0008008      log                     FACTOR              1           0.01            100          grhk0              1              0                   1
hk0008009      log                     FACTOR              1           0.01            100          grhk0              1              0                   1
hk0008010      log                     FACTOR              1           0.01            100          grhk0              1              0                   1
hk0008011      log                     FACTOR              1           0.01            100          grhk0              1              0                   1
hk0008012      log                     FACTOR              1           0.01            100          grhk0              1              0                   1
hk0008013      log                     FACTOR              1           0.01            100          grhk0              1              0                   1
hk0008014      log                     FACTOR              1           0.01            100          grhk0              1              0                   1
hk0008015      log                     FACTOR              1           0.01            100          grhk0              1              0                   1
hk0008016      log                     FACTOR              1           0.01            100          grhk0              1              0                   1
hk0008017      log                     FACTOR              1           0.01            100          grhk0              1              0                   1
hk0008018      log                     FACTOR              1           0.01            100          grhk0              1              0                   1
hk0008019      log                     FACTOR              1           0.01            100          grhk0              1              0                   1
hk0009000      log                     FACTOR              1           0.01            100          grhk0              1              0                   1
hk0009001      log                     FACTOR              1           0.01            100          grhk0              1              0                   1
hk0009002      log                     FACTOR              1           0.01            100          grhk0              1              0                   1
hk0009003      log                     FACTOR              1           0.01            100          grhk0              1              0                   1
hk0009008      log                     FACTOR              1           0.01            100          grhk0              1              0                   1
hk0009009      log                     FACTOR              1           0.01            100          grhk0              1              0                   1
hk0009010      log                     FACTOR              1           0.01            100          grhk0              1              0                   1
hk0009011      log                     FACTOR              1           0.01            100          grhk0              1              0                   1
hk0009012      log                     FACTOR              1           0.01            100          grhk0              1              0                   1
hk0009013      log                     FACTOR              1           0.01            100          grhk0              1              0                   1
hk0009014      log                     FACTOR              1           0.01            100          grhk0              1              0                   1
hk0009015      log                     FACTOR              1           0.01            100          grhk0              1              0                   1
hk0009016      log                     FACTOR              1           0.01            100          grhk0              1              0                   1
hk0009017      log                     FACTOR              1           0.01            100          grhk0              1              0                   1
hk0009018      log                     FACTOR              1           0.01            100          grhk0              1              0                   1
hk0009019      log                     FACTOR              1           0.01            100          grhk0              1              0                   1
hk0010000      log                     FACTOR              1           0.01            100          grhk0              1              0                   1
hk0010001      log                     FACTOR              1           0.01            100          grhk0              1              0                   1
hk0010002      log                     FACTOR              1           0.01            100          grhk0              1              0                   1
hk0010003      log                     FACTOR              1           0.01            100          grhk0              1              0                   1
hk0010008      log                     FACTOR              1           0.01            100          grhk0              1              0                   1
hk0010009      log                     FACTOR              1           0.01            100          grhk0              1              0                   1
hk0010010      log                     FACTOR              1           0.01            100          grhk0              1              0                   1
hk0010011      log                     FACTOR              1           0.01            100          grhk0              1              0                   1
hk0010012      log                     FACTOR              1           0.01            100          grhk0              1              0                   1
hk0010013      log                     FACTOR              1           0.01            100          grhk0              1              0                   1
hk0010014      log                     FACTOR              1           0.01            100          grhk0              1              0                   1
hk0010015      log                     FACTOR              1           0.01            100          grhk0              1              0                   1
hk0010016      log                     FACTOR              1           0.01            100          grhk0              1              0                   1
hk0010017      log                     FACTOR              1           0.01            100          grhk0              1              0                   1
hk0010018      log                     FACTOR              1           0.01            100          grhk0              1              0                   1
hk0010019      log                     FACTOR              1           0.01            100          grhk0              1              0                   1
hk0011000      log                     FACTOR              1           0.01            100          grhk0              1              0                   1
hk0011001      log                     FACTOR              1           0.01            100          grhk0              1              0                   1
hk0011002      log                     FACTOR              1           0.01            100          grhk0              1              0                   1
hk0011003      log                     FACTOR              1           0.01            100          grhk0              1              0                   1
hk0011008      log                     FACTOR              1           0.01            100          grhk0              1              0                   1
hk0011009      log                     FACTOR              1           0.01            100          grhk0              1              0                   1
hk0011010      log                     FACTOR              1           0.01            100          grhk0              1              0                   1
hk0011011      log                     FACTOR              1           0.01            100          grhk0              1              0                   1
hk0011012      log                     FACTOR              1           0.01            100          grhk0              1              0                   1
hk0011013      log                     FACTOR              1           0.01            100          grhk0              1              0                   1
hk0011014      log                     FACTOR              1           0.01            100          grhk0              1              0                   1
hk0011015      log                     FACTOR              1           0.01            100          grhk0              1              0                   1
hk0011016      log                     FACTOR              1           0.01            100          grhk0              1              0                   1
hk0011017      log                     FACTOR              1           0.01            100          grhk0              1              0                   1
hk0011018      log                     FACTOR              1           0.01            100          grhk0              1              0                   1
hk0011019      log                     FACTOR              1           0.01            100          grhk0              1              0                   1
hk0012000      log                     FACTOR              1           0.01            100          grhk0              1              0                   1
hk0012001      log                     FACTOR              1           0.01            100          grhk0              1              0                   1
hk0012002      log                     FACTOR              1           0.01            100          grhk0              1              0                   1
hk0012003      log                     FACTOR              1           0.01            100          grhk0              1              0                   1
hk0012008      log                     FACTOR              1           0.01            100          grhk0              1              0                   1
hk0012009      log                     FACTOR              1           0.01            100          grhk0              1              0                   1
hk0012010      log                     FACTOR              1           0.01            100          grhk0              1              0                   1
hk0012011      log                     FACTOR              1           0.01            100          grhk0              1              0                   1
hk0012012      log                     FACTOR              1           0.01            100          grhk0              1              0                   1
hk0012013      log                     FACTOR              1           0.01            100          grhk0              1              0                   1
hk0012014      log                     FACTOR              1           0.01            100          grhk0              1              0                   1
hk0012015      log                     FACTOR              1           0.01            100          grhk0              1              0                   1
hk0012016      log                     FACTOR              1           0.01            100          grhk0              1              0                   1
hk0012017      log                     FACTOR              1           0.01            100          grhk0              1              0                   1
hk0012018      log                     FACTOR              1           0.01            100          grhk0              1              0                   1
hk0012019      log                     FACTOR              1           0.01            100          grhk0              1              0                   1
hk0013000      log                     FACTOR              1           0.01            100          grhk0              1              0                   1
hk0013001      log                     FACTOR              1           0.01            100          grhk0              1              0                   1
hk0013002      log                     FACTOR              1           0.01            100          grhk0              1              0                   1
hk0013003      log                     FACTOR              1           0.01            100          grhk0              1              0                   1
hk0013008      log                     FACTOR              1           0.01            100          grhk0              1              0                   1
hk0013009      log                     FACTOR              1           0.01            100          grhk0              1              0                   1
hk0013010      log                     FACTOR              1           0.01            100          grhk0              1              0                   1
hk0013011      log                     FACTOR              1           0.01            100          grhk0              1              0                   1
hk0013012      log                     FACTOR              1           0.01            100          grhk0              1              0                   1
hk0013013      log                     FACTOR              1           0.01            100          grhk0              1              0                   1
hk0013014      log                     FACTOR              1           0.01            100          grhk0              1              0                   1
hk0013015      log                     FACTOR              1           0.01            100          grhk0              1              0                   1
hk0013016      log                     FACTOR              1           0.01            100          grhk0              1              0                   1
hk0013017      log                     FACTOR              1           0.01            100          grhk0              1              0                   1
hk0013018      log                     FACTOR              1           0.01            100          grhk0              1              0                   1
hk0013019      log                     FACTOR              1           0.01            100          grhk0              1              0                   1
hk0014000      log                     FACTOR              1           0.01            100          grhk0              1              0                   1
hk0014001      log                     FACTOR              1           0.01            100          grhk0              1              0                   1
hk0014002      log                     FACTOR              1           0.01            100          grhk0              1              0                   1
hk0014003      log                     FACTOR              1           0.01            100          grhk0              1              0                   1
hk0014008      log                     FACTOR              1           0.01            100          grhk0              1              0                   1
hk0014009      log                     FACTOR              1           0.01            100          grhk0              1              0                   1
hk0014010      log                     FACTOR              1           0.01            100          grhk0              1              0                   1
hk0014011      log                     FACTOR              1           0.01            100          grhk0              1              0                   1
hk0014012      log                     FACTOR              1           0.01            100          grhk0              1              0                   1
hk0014013      log                     FACTOR              1           0.01            100          grhk0              1              0                   1
hk0014014      log                     FACTOR              1           0.01            100          grhk0              1              0                   1
hk0014015      log                     FACTOR              1           0.01            100          grhk0              1              0                   1
hk0014016      log                     FACTOR              1           0.01            100          grhk0              1              0                   1
hk0014017      log                     FACTOR              1           0.01            100          grhk0              1              0                   1
hk0014018      log                     FACTOR              1           0.01            100          grhk0              1              0                   1
hk0014019      log                     FACTOR              1           0.01            100          grhk0              1              0                   1
hk0015000      log                     FACTOR              1           0.01            100          grhk0              1              0                   1
hk0015001      log                     FACTOR              1           0.01            100          grhk0              1              0                   1
hk0015002      log                     FACTOR              1           0.01            100          grhk0              1              0                   1
hk0015003      log                     FACTOR              1           0.01            100          grhk0              1              0                   1
hk0015008      log                     FACTOR              1           0.01            100          grhk0              1              0                   1
hk0015009      log                     FACTOR              1           0.01            100          grhk0              1              0                   1
hk0015010      log                     FACTOR              1           0.01            100          grhk0              1              0                   1
hk0015011      log                     FACTOR              1           0.01            100          grhk0              1              0                   1
hk0015012      log                     FACTOR              1           0.01            100          grhk0              1              0                   1
hk0015013      log                     FACTOR              1           0.01            100          grhk0              1              0                   1
hk0015014      log                     FACTOR              1           0.01            100          grhk0              1              0                   1
hk0015015      log                     FACTOR              1           0.01            100          grhk0              1              0                   1
hk0015016      log                     FACTOR              1           0.01            100          grhk0              1              0                   1
hk0015017      log                     FACTOR              1           0.01            100          grhk0              1              0                   1
hk0015018      log                     FACTOR              1           0.01            100          grhk0              1              0                   1
hk0015019      log                     FACTOR              1           0.01            100          grhk0              1              0                   1
hk0016000      log                     FACTOR              1           0.01            100          grhk0              1              0                   1
hk0016001      log                     FACTOR              1           0.01            100          grhk0              1              0                   1
hk0016002      log                     FACTOR              1           0.01            100          grhk0              1              0                   1
hk0016003      log                     FACTOR              1           0.01            100          grhk0              1              0                   1
hk0016008      log                     FACTOR              1           0.01            100          grhk0              1              0                   1
hk0016009      log                     FACTOR              1           0.01            100          grhk0              1              0                   1
hk0016010      log                     FACTOR              1           0.01            100          grhk0              1              0                   1
hk0016011      log                     FACTOR              1           0.01            100          grhk0              1              0                   1
hk0016012      log                     FACTOR              1           0.01            100          grhk0              1              0                   1
hk0016013      log                     FACTOR              1           0.01            100          grhk0              1              0                   1
hk0016014      log                     FACTOR              1           0.01            100          grhk0              1              0                   1
hk0016015      log                     FACTOR              1           0.01            100          grhk0              1              0                   1
hk0016016      log                     FACTOR              1           0.01            100          grhk0              1              0                   1
hk0016017      log                     FACTOR              1           0.01            100          grhk0              1              0                   1
hk0016018      log                     FACTOR              1           0.01            100          grhk0              1              0                   1
hk0016019      log                     FACTOR              1           0.01            100          grhk0              1              0                   1
hk0017000      log                     FACTOR              1           0.01            100          grhk0              1              0                   1
hk0017001      log                     FACTOR              1           0.01            100          grhk0              1              0                   1
hk0017002      log                     FACTOR              1           0.01            100          grhk0              1              0                   1
hk0017003      log                     FACTOR              1           0.01            100          grhk0              1              0                   1
hk0017008      log                     FACTOR              1           0.01            100          grhk0              1              0                   1
hk0017009      log                     FACTOR              1           0.01            100          grhk0              1              0                   1
hk0017010      log                     FACTOR              1           0.01            100          grhk0              1              0                   1
hk0017011      log                     FACTOR              1           0.01            100          grhk0              1              0                   1
hk0017012      log                     FACTOR              1           0.01            100          grhk0              1              0                   1
hk0017013      log                     FACTOR              1           0.01            100          grhk0              1              0                   1
hk0017014      log                     FACTOR              1           0.01            100          grhk0              1              0                   1
hk0017015      log                     FACTOR              1           0.01            100          grhk0              1              0                   1
hk0017016      log                     FACTOR              1           0.01            100          grhk0              1              0                   1
hk0017017      log                     FACTOR              1           0.01            100          grhk0              1              0                   1
hk0017018      log                     FACTOR              1           0.01            100          grhk0              1              0                   1
hk0017019      log                     FACTOR              1           0.01            100          grhk0              1              0                   1
hk0018000      log                     FACTOR              1           0.01            100          grhk0              1              0                   1
hk0018001      log                     FACTOR              1           0.01            100          grhk0              1              0                   1
hk0018002      log                     FACTOR              1           0.01            100          grhk0              1              0                   1
hk0018003      log                     FACTOR              1           0.01            100          grhk0              1              0                   1
hk0018008      log                     FACTOR              1           0.01            100          grhk0              1              0                   1
hk0018009      log                     FACTOR              1           0.01            100          grhk0              1              0                   1
hk0018010      log                     FACTOR              1           0.01            100          grhk0              1              0                   1
hk0018011      log                     FACTOR              1           0.01            100          grhk0              1              0                   1
hk0018012      log                     FACTOR              1           0.01            100          grhk0              1              0                   1
hk0018013      log                     FACTOR              1           0.01            100          grhk0              1              0                   1
hk0018014      log                     FACTOR              1           0.01            100          grhk0              1              0                   1
hk0018015      log                     FACTOR              1           0.01            100          grhk0              1              0                   1
hk0018016      log                     FACTOR              1           0.01            100          grhk0              1              0                   1
hk0018017      log                     FACTOR              1           0.01            100          grhk0              1              0                   1
hk0018018      log                     FACTOR              1           0.01            100          grhk0              1              0                   1
hk0018019      log                     FACTOR              1           0.01            100          grhk0              1              0                   1
hk0019000      log                     FACTOR              1           0.01            100          grhk0              1              0                   1
hk0019001      log                     FACTOR              1           0.01            100          grhk0              1              0                   1
hk0019002      log                     FACTOR              1           0.01            100          grhk0              1              0                   1
hk0019003      log                     FACTOR              1           0.01            100          grhk0              1              0                   1
hk0019008      log                     FACTOR              1           0.01            100          grhk0              1              0                   1
hk0019009      log                     FACTOR              1           0.01            100          grhk0              1              0                   1
hk0019010      log                     FACTOR              1           0.01            100          grhk0              1              0                   1
hk0019011      log                     FACTOR              1           0.01            100          grhk0              1              0                   1
hk0019012      log                     FACTOR              1           0.01            100          grhk0              1              0                   1
hk0019013      log                     FACTOR              1           0.01            100          grhk0              1              0                   1
hk0019014      log                     FACTOR              1           0.01            100          grhk0              1              0                   1
hk0019015      log                     FACTOR              1           0.01            100          grhk0              1              0                   1
hk0019016      log                     FACTOR              1           0.01            100          grhk0              1              0                   1
hk0019017      log                     FACTOR              1           0.01            100          grhk0              1              0                   1
hk0019018      log                     FACTOR              1           0.01            100          grhk0              1              0                   1
hk0019019      log                     FACTOR              1           0.01            100          grhk0              1              0                   1
hk0020000      log                     FACTOR              1           0.01            100          grhk0              1              0                   1
hk0020001      log                     FACTOR              1           0.01            100          grhk0              1              0                   1
hk0020002      log                     FACTOR              1           0.01            100          grhk0              1              0                   1
hk0020003      log                     FACTOR              1           0.01            100          grhk0              1              0                   1
hk0020008      log                     FACTOR              1           0.01            100          grhk0              1              0                   1
hk0020009      log                     FACTOR              1           0.01            100          grhk0              1              0                   1
hk0020010      log                     FACTOR              1           0.01            100          grhk0              1              0                   1
hk0020011      log                     FACTOR              1           0.01            100          grhk0              1              0                   1
hk0020012      log                     FACTOR              1           0.01            100          grhk0              1              0                   1
hk0020013      log                     FACTOR              1           0.01            100          grhk0              1              0                   1
hk0020014      log                     FACTOR              1           0.01            100          grhk0              1              0                   1
hk0020015      log                     FACTOR              1           0.01            100          grhk0              1              0                   1
hk0020016      log                     FACTOR              1           0.01            100          grhk0              1              0                   1
hk0020017      log                     FACTOR              1           0.01            100          grhk0              1              0                   1
hk0020018      log                     FACTOR              1           0.01            100          grhk0              1              0                   1
hk0020019      log                     FACTOR              1           0.01            100          grhk0              1              0                   1
hk0021000      log                     FACTOR              1           0.01            100          grhk0              1              0                   1
hk0021001      log                     FACTOR              1           0.01            100          grhk0              1              0                   1
hk0021002      log                     FACTOR              1           0.01            100          grhk0              1              0                   1
hk0021003      log                     FACTOR              1           0.01            100          grhk0              1              0                   1
hk0021006      log                     FACTOR              1           0.01            100          grhk0              1              0                   1
hk0021007      log                     FACTOR              1           0.01            100          grhk0              1              0                   1
hk0021008      log                     FACTOR              1           0.01            100          grhk0              1              0                   1
hk0021009      log                     FACTOR              1           0.01            100          grhk0              1              0                   1
hk0021010      log                     FACTOR              1           0.01            100          grhk0              1              0                   1
hk0021011      log                     FACTOR              1           0.01            100          grhk0              1              0                   1
hk0021012      log                     FACTOR              1           0.01            100          grhk0              1              0                   1
hk0021013      log                     FACTOR              1           0.01            100          grhk0              1              0                   1
hk0021014      log                     FACTOR              1           0.01            100          grhk0              1              0                   1
hk0021015      log                     FACTOR              1           0.01            100          grhk0              1              0                   1
hk0021016      log                     FACTOR              1           0.01            100          grhk0              1              0                   1
hk0021017      log                     FACTOR              1           0.01            100          grhk0              1              0                   1
hk0021018      log                     FACTOR              1           0.01            100          grhk0              1              0                   1
hk0021019      log                     FACTOR              1           0.01            100          grhk0              1              0                   1
hk0022000      log                     FACTOR              1           0.01            100          grhk0              1              0                   1
hk0022001      log                     FACTOR              1           0.01            100          grhk0              1              0                   1
hk0022002      log                     FACTOR              1           0.01            100          grhk0              1              0                   1
hk0022003      log                     FACTOR              1           0.01            100          grhk0              1              0                   1
hk0022004      log                     FACTOR              1           0.01            100          grhk0              1              0                   1
hk0022006      log                     FACTOR              1           0.01            100          grhk0              1              0                   1
hk0022007      log                     FACTOR              1           0.01            100          grhk0              1              0                   1
hk0022008      log                     FACTOR              1           0.01            100          grhk0              1              0                   1
hk0022009      log                     FACTOR              1           0.01            100          grhk0              1              0                   1
hk0022010      log                     FACTOR              1           0.01            100          grhk0              1              0                   1
hk0022011      log                     FACTOR              1           0.01            100          grhk0              1              0                   1
hk0022012      log                     FACTOR              1           0.01            100          grhk0              1              0                   1
hk0022013      log                     FACTOR              1           0.01            100          grhk0              1              0                   1
hk0022014      log                     FACTOR              1           0.01            100          grhk0              1              0                   1
hk0022015      log                     FACTOR              1           0.01            100          grhk0              1              0                   1
hk0022016      log                     FACTOR              1           0.01            100          grhk0              1              0                   1
hk0022017      log                     FACTOR              1           0.01            100          grhk0              1              0                   1
hk0022018      log                     FACTOR              1           0.01            100          grhk0              1              0                   1
hk0022019      log                     FACTOR              1           0.01            100          grhk0              1              0                   1
hk0023000      log                     FACTOR              1           0.01            100          grhk0              1              0                   1
hk0023001      log                     FACTOR              1           0.01            100          grhk0              1              0                   1
hk0023002      log                     FACTOR              1           0.01            100          grhk0              1              0                   1
hk0023003      log                     FACTOR              1           0.01            100          grhk0              1              0                   1
hk0023004      log                     FACTOR              1           0.01            100          grhk0              1              0                   1
hk0023005      log                     FACTOR              1           0.01            100          grhk0              1              0                   1
hk0023006      log                     FACTOR              1           0.01            100          grhk0              1              0                   1
hk0023007      log                     FACTOR              1           0.01            100          grhk0              1              0                   1
hk0023008      log                     FACTOR              1           0.01            100          grhk0              1              0                   1
hk0023009      log                     FACTOR              1           0.01            100          grhk0              1              0                   1
hk0023010      log                     FACTOR              1           0.01            100          grhk0              1              0                   1
hk0023011      log                     FACTOR              1           0.01            100          grhk0              1              0                   1
hk0023012      log                     FACTOR              1           0.01            100          grhk0              1              0                   1
hk0023013      log                     FACTOR              1           0.01            100          grhk0              1              0                   1
hk0023014      log                     FACTOR              1           0.01            100          grhk0              1              0                   1
hk0023015      log                     FACTOR              1           0.01            100          grhk0              1              0                   1
hk0023016      log                     FACTOR              1           0.01            100          grhk0              1              0                   1
hk0023017      log                     FACTOR              1           0.01            100          grhk0              1              0                   1
hk0023018      log                     FACTOR              1           0.01            100          grhk0              1              0                   1
hk0023019      log                     FACTOR              1           0.01            100          grhk0              1              0                   1
hk0024000      log                     FACTOR              1           0.01            100          grhk0              1              0                   1
hk0024001      log                     FACTOR              1           0.01            100          grhk0              1              0                   1
hk0024002      log                     FACTOR              1           0.01            100          grhk0              1              0                   1
hk0024003      log                     FACTOR              1           0.01            100          grhk0              1              0                   1
hk0024004      log                     FACTOR              1           0.01            100          grhk0              1              0                   1
hk0024005      log                     FACTOR              1           0.01            100          grhk0              1              0                   1
hk0024006      log                     FACTOR              1           0.01            100          grhk0              1              0                   1
hk0024007      log                     FACTOR              1           0.01            100          grhk0              1              0                   1
hk0024008      log                     FACTOR              1           0.01            100          grhk0              1              0                   1
hk0024009      log                     FACTOR              1           0.01            100          grhk0              1              0                   1
hk0024010      log                     FACTOR              1           0.01            100          grhk0              1              0                   1
hk0024011      log                     FACTOR              1           0.01            100          grhk0              1              0                   1
hk0024012      log                     FACTOR              1           0.01            100          grhk0              1              0                   1
hk0024013      log                     FACTOR              1           0.01            100          grhk0              1              0                   1
hk0024014      log                     FACTOR              1           0.01            100          grhk0              1              0                   1
hk0024015      log                     FACTOR              1           0.01            100          grhk0              1              0                   1
hk0024016      log                     FACTOR              1           0.01            100          grhk0              1              0                   1
hk0024017      log                     FACTOR              1           0.01            100          grhk0              1              0                   1
hk0024018      log                     FACTOR              1           0.01            100          grhk0              1              0                   1
hk0024019      log                     FACTOR              1           0.01            100          grhk0              1              0                   1
hk0025000      log                     FACTOR              1           0.01            100          grhk0              1              0                   1
hk0025001      log                     FACTOR              1           0.01            100          grhk0              1              0                   1
hk0025002      log                     FACTOR              1           0.01            100          grhk0              1              0                   1
hk0025003      log                     FACTOR              1           0.01            100          grhk0              1              0                   1
hk0025004      log                     FACTOR              1           0.01            100          grhk0              1              0                   1
hk0025005      log                     FACTOR              1           0.01            100          grhk0              1              0                   1
hk0025006      log                     FACTOR              1           0.01            100          grhk0              1              0                   1
hk0025007      log                     FACTOR              1           0.01            100          grhk0              1              0                   1
hk0025008      log                     FACTOR              1           0.01            100          grhk0              1              0                   1
hk0025009      log                     FACTOR              1           0.01            100          grhk0              1              0                   1
hk0025010      log                     FACTOR              1           0.01            100          grhk0              1              0                   1
hk0025011      log                     FACTOR              1           0.01            100          grhk0              1              0                   1
hk0025012      log                     FACTOR              1           0.01            100          grhk0              1              0                   1
hk0025013      log                     FACTOR              1           0.01            100          grhk0              1              0                   1
hk0025014      log                     FACTOR              1           0.01            100          grhk0              1              0                   1
hk0025015      log                     FACTOR              1           0.01            100          grhk0              1              0                   1
hk0025016      log                     FACTOR              1           0.01            100          grhk0              1              0                   1
hk0025017      log                     FACTOR              1           0.01            100          grhk0              1              0                   1
hk0025018      log                     FACTOR              1           0.01            100          grhk0              1              0                   1
hk0025019      log                     FACTOR              1           0.01            100          grhk0              1              0                   1
hk0026000      log                     FACTOR              1           0.01            100          grhk0              1              0                   1
hk0026001      log                     FACTOR              1           0.01            100          grhk0              1              0                   1
hk0026002      log                     FACTOR              1           0.01            100          grhk0              1              0                   1
hk0026003      log                     FACTOR              1           0.01            100          grhk0              1              0                   1
hk0026004      log                     FACTOR              1           0.01            100          grhk0              1              0                   1
hk0026005      log                     FACTOR              1           0.01            100          grhk0              1              0                   1
hk0026006      log                     FACTOR              1           0.01            100          grhk0              1              0                   1
hk0026007      log                     FACTOR              1           0.01            100          grhk0              1              0                   1
hk0026008      log                     FACTOR              1           0.01            100          grhk0              1              0                   1
hk0026009      log                     FACTOR              1           0.01            100          grhk0              1              0                   1
hk0026010      log                     FACTOR              1           0.01            100          grhk0              1              0                   1
hk0026011      log                     FACTOR              1           0.01            100          grhk0              1              0                   1
hk0026012      log                     FACTOR              1           0.01            100          grhk0              1              0                   1
hk0026013      log                     FACTOR              1           0.01            100          grhk0              1              0                   1
hk0026014      log                     FACTOR              1           0.01            100          grhk0              1              0                   1
hk0026015      log                     FACTOR              1           0.01            100          grhk0              1              0                   1
hk0026016      log                     FACTOR              1           0.01            100          grhk0              1              0                   1
hk0026017      log                     FACTOR              1           0.01            100          grhk0              1              0                   1
[...]
   ucn_00_031_002_000          ucn            0.0584988            0.0584988         -4.96000e-10              0.00000
   ucn_00_031_003_000          ucn            0.0489154            0.0489154         -4.70000e-10              0.00000
   ucn_00_031_004_000          ucn            0.0463170            0.0463170          1.40000e-10              0.00000
   ucn_00_031_005_000          ucn            0.0469896            0.0469897         -4.66000e-10              0.00000
   ucn_00_031_006_000          ucn            0.0497251            0.0497251          2.00000e-10              0.00000
   ucn_00_031_007_000          ucn            0.0456320            0.0456320         -1.63000e-10              0.00000
   ucn_00_031_008_000          ucn            0.0484909            0.0484909         -1.80500e-09              0.00000
   ucn_00_031_009_000          ucn            0.0472434            0.0472434         -2.10000e-11              0.00000
   ucn_00_031_010_000          ucn            0.0445080            0.0445079          5.44000e-10              0.00000
   ucn_00_031_011_000          ucn            0.0434099            0.0434098          4.48000e-10              0.00000
   ucn_00_031_012_000          ucn            0.0454127            0.0454127         -3.55000e-10              0.00000
   ucn_00_031_013_000          ucn            0.0450692            0.0450692          1.80300e-09              0.00000
   ucn_00_031_014_000          ucn            0.0451385            0.0451385          6.31000e-10              0.00000
   ucn_00_031_015_000          ucn            0.0467493            0.0467493          1.05700e-09              0.00000
   ucn_00_031_016_000          ucn            0.0501733            0.0501733         -2.01000e-10              0.00000
   ucn_00_031_017_000          ucn            0.0520238            0.0520238         -5.97000e-10              0.00000
   ucn_00_031_018_000          ucn            0.0526110            0.0526110          3.08000e-10              0.00000
   ucn_00_031_019_000          ucn            0.0536331            0.0536331         -4.19000e-10              0.00000
   ucn_00_032_001_000          ucn            0.0502991            0.0502991          5.78000e-10              0.00000
   ucn_00_032_002_000          ucn            0.0587665            0.0587665          1.71100e-09              0.00000
   ucn_00_032_003_000          ucn            0.0490704            0.0490704         -9.70000e-11              0.00000
   ucn_00_032_004_000          ucn            0.0486476            0.0486476          9.60000e-10              0.00000
   ucn_00_032_005_000          ucn            0.0477043            0.0477043          5.00000e-10              0.00000
   ucn_00_032_006_000          ucn            0.0499455            0.0499455         -1.23000e-09              0.00000
   ucn_00_032_007_000          ucn            0.0473683            0.0473683         -2.56000e-10              0.00000
   ucn_00_032_008_000          ucn            0.0458325            0.0458325         -2.37000e-10              0.00000
   ucn_00_032_009_000          ucn            0.0486458            0.0486458         -5.90000e-11              0.00000
   ucn_00_032_010_000          ucn            0.0465481            0.0465481          1.85300e-09              0.00000
   ucn_00_032_011_000          ucn            0.0426822            0.0426822          3.74000e-10              0.00000
   ucn_00_032_012_000          ucn            0.0450876            0.0450876          1.01100e-09              0.00000
   ucn_00_032_013_000          ucn            0.0455466            0.0455466          2.05000e-10              0.00000
   ucn_00_032_014_000          ucn            0.0468062            0.0468062         -1.21100e-09              0.00000
   ucn_00_032_015_000          ucn            0.0468324            0.0468324          9.00000e-12              0.00000
   ucn_00_032_016_000          ucn            0.0500526            0.0500526          4.15000e-10              0.00000
   ucn_00_032_017_000          ucn            0.0520847            0.0520847         -7.90000e-11              0.00000
   ucn_00_032_018_000          ucn            0.0530751            0.0530752         -3.45000e-10              0.00000
   ucn_00_032_019_000          ucn            0.0542175            0.0542175          3.98000e-10              0.00000
   ucn_00_033_002_000          ucn            0.0679599            0.0679599         -3.29000e-10              0.00000
   ucn_00_033_003_000          ucn            0.0526285            0.0526285          4.47000e-10              0.00000
   ucn_00_033_004_000          ucn            0.0493528            0.0493528         -1.36000e-10              0.00000
   ucn_00_033_005_000          ucn            0.0531890            0.0531890         -3.74000e-10              0.00000
   ucn_00_033_006_000          ucn            0.0464973            0.0464973         -1.10600e-09              0.00000
   ucn_00_033_007_000          ucn            0.0440350            0.0440350          1.61100e-09              0.00000
   ucn_00_033_008_000          ucn            0.0468238            0.0468238         -1.56600e-09              0.00000
   ucn_00_033_009_000          ucn            0.0464453            0.0464453         -8.20000e-11              0.00000
   ucn_00_033_010_000          ucn            0.0427750            0.0427750         -2.71000e-10              0.00000
   ucn_00_033_011_000  less_wlconc            0.0569481            0.0474567           0.00949134              1.00000
   ucn_00_033_012_000          ucn            0.0502542            0.0502542          1.02700e-09              0.00000
   ucn_00_033_013_000          ucn            0.0468804            0.0468804          1.99000e-10              0.00000
   ucn_00_033_014_000          ucn            0.0480842            0.0480841          1.00000e-09              0.00000
   ucn_00_033_015_000          ucn            0.0478177            0.0478177         -2.90000e-10              0.00000
   ucn_00_033_016_000          ucn            0.0506092            0.0506092         -1.55400e-09              0.00000
   ucn_00_033_017_000          ucn            0.0525537            0.0525537          1.16800e-09              0.00000
   ucn_00_033_018_000          ucn            0.0530892            0.0530892          7.70000e-11              0.00000
   ucn_00_033_019_000          ucn            0.0526376            0.0526376         -1.57000e-09              0.00000
   ucn_00_034_003_000          ucn            0.0585272            0.0585272         -1.33300e-09              0.00000
   ucn_00_034_004_000          ucn            0.0519909            0.0519908          1.76000e-09              0.00000
   ucn_00_034_005_000          ucn            0.0512169            0.0512169          2.50000e-10              0.00000
   ucn_00_034_006_000          ucn            0.0490566            0.0490566          3.20000e-11              0.00000
   ucn_00_034_007_000          ucn            0.0514934            0.0514934          1.19700e-09              0.00000
   ucn_00_034_008_000          ucn            0.0481489            0.0481489         -8.10000e-11              0.00000
   ucn_00_034_009_000          ucn            0.0457902            0.0457902          1.13000e-10              0.00000
   ucn_00_034_010_000          ucn            0.0458074            0.0458074         -3.20000e-10              0.00000
   ucn_00_034_011_000          ucn            0.0511302            0.0511302         -4.09000e-10              0.00000
   ucn_00_034_012_000          ucn            0.0510985            0.0510985         -1.02000e-10              0.00000
   ucn_00_034_013_000          ucn            0.0477420            0.0477420          6.40000e-11              0.00000
   ucn_00_034_014_000          ucn            0.0492357            0.0492357         -3.62000e-10              0.00000
   ucn_00_034_015_000          ucn            0.0492764            0.0492764         -3.90000e-10              0.00000
   ucn_00_034_016_000          ucn            0.0524693            0.0524693          4.60000e-11              0.00000
   ucn_00_034_017_000          ucn            0.0540187            0.0540187         -2.68000e-10              0.00000
   ucn_00_034_018_000          ucn            0.0540381            0.0540381         -3.08000e-10              0.00000
   ucn_00_034_019_000          ucn            0.0540758            0.0540758          3.55000e-10              0.00000
   ucn_00_035_004_000          ucn            0.0494775            0.0494775          2.75000e-10              0.00000
   ucn_00_035_005_000          ucn            0.0484658            0.0484658         -1.63000e-10              0.00000
   ucn_00_035_006_000          ucn            0.0480364            0.0480364         -2.99000e-10              0.00000
   ucn_00_035_007_000          ucn            0.0522611            0.0522611         -2.53000e-10              0.00000
   ucn_00_035_008_000          ucn            0.0509911            0.0509911         -2.22000e-10              0.00000
   ucn_00_035_009_000          ucn            0.0477119            0.0477119         -3.59000e-10              0.00000
   ucn_00_035_010_000          ucn            0.0476176            0.0476176         -4.34000e-10              0.00000
   ucn_00_035_011_000          ucn            0.0490368            0.0490368          8.61000e-10              0.00000
   ucn_00_035_012_000          ucn            0.0507932            0.0507932          2.59000e-10              0.00000
   ucn_00_035_013_000          ucn            0.0490698            0.0490698         -1.49500e-09              0.00000
   ucn_00_035_014_000          ucn            0.0491820            0.0491820          3.25000e-10              0.00000
   ucn_00_035_015_000          ucn            0.0499520            0.0499520         -1.48000e-10              0.00000
   ucn_00_035_016_000          ucn            0.0531149            0.0531149         -1.69500e-09              0.00000
   ucn_00_035_017_000          ucn            0.0536045            0.0536045          1.25300e-09              0.00000
   ucn_00_035_018_000          ucn            0.0543105            0.0543105         -5.00000e-12              0.00000
   ucn_00_036_004_000          ucn            0.0510384            0.0510384         -2.11000e-10              0.00000
   ucn_00_036_005_000          ucn            0.0488824            0.0488824          4.03000e-10              0.00000
   ucn_00_036_006_000          ucn            0.0554445            0.0554445         -3.30000e-11              0.00000
   ucn_00_036_007_000          ucn            0.0515795            0.0515795          7.00000e-12              0.00000
   ucn_00_036_008_000          ucn            0.0489592            0.0489592         -1.33000e-10              0.00000
   ucn_00_036_009_000          ucn            0.0490691            0.0490691         -3.99000e-10              0.00000
   ucn_00_036_010_000          ucn            0.0476349            0.0476349         -3.20000e-11              0.00000
   ucn_00_036_011_000          ucn            0.0466032            0.0466032          1.93000e-10              0.00000
   ucn_00_036_012_000          ucn            0.0490174            0.0490174         -1.76000e-10              0.00000
   ucn_00_036_013_000          ucn            0.0522757            0.0522757          3.35000e-10              0.00000
   ucn_00_036_014_000          ucn            0.0494327            0.0494327          6.60000e-11              0.00000
   ucn_00_036_015_000          ucn            0.0504483            0.0504483          3.55000e-10              0.00000
   ucn_00_036_016_000          ucn            0.0535455            0.0535455         -1.60000e-11              0.00000
   ucn_00_036_017_000          ucn            0.0540934            0.0540934          4.07000e-10              0.00000
   ucn_00_036_018_000          ucn            0.0555674            0.0555674         -3.11000e-10              0.00000
   ucn_00_037_005_000          ucn            0.0541028            0.0541028          1.38000e-10              0.00000
   ucn_00_037_006_000          ucn            0.0506609            0.0506609         -1.51000e-10              0.00000
   ucn_00_037_007_000          ucn            0.0471072            0.0471072         -2.05000e-10              0.00000
   ucn_00_037_008_000          ucn            0.0502022            0.0502022          5.20000e-11              0.00000
   ucn_00_037_009_000          ucn            0.0497716            0.0497715          1.04300e-09              0.00000
   ucn_00_037_010_000          ucn            0.0495524            0.0495524          6.43000e-10              0.00000
   ucn_00_037_011_000          ucn            0.0480846            0.0480846         -7.90000e-10              0.00000
   ucn_00_037_012_000          ucn            0.0493392            0.0493392          2.02000e-10              0.00000
   ucn_00_037_013_000          ucn            0.0520237            0.0520237          1.17200e-09              0.00000
   ucn_00_037_014_000          ucn            0.0494220            0.0494220          3.07000e-10              0.00000
   ucn_00_037_015_000          ucn            0.0505030            0.0505030         -1.08000e-10              0.00000
   ucn_00_037_016_000          ucn            0.0546922            0.0546922          4.15000e-10              0.00000
   ucn_00_037_017_000          ucn            0.0540067            0.0540067          1.21000e-10              0.00000
   ucn_00_038_005_000          ucn            0.0489151            0.0489151         -9.80000e-11              0.00000
   ucn_00_038_006_000          ucn            0.0543326            0.0543326          3.40000e-10              0.00000
   ucn_00_038_007_000          ucn            0.0471503            0.0471503         -3.99000e-10              0.00000
   ucn_00_038_008_000          ucn            0.0499213            0.0499213         -4.63000e-10              0.00000
   ucn_00_038_009_000          ucn            0.0497842            0.0497842         -1.39900e-09              0.00000
   ucn_00_038_010_000          ucn            0.0478042            0.0478042          2.58000e-10              0.00000
   ucn_00_038_011_000          ucn            0.0480939            0.0480939          3.81000e-10              0.00000
   ucn_00_038_012_000          ucn            0.0485054            0.0485054         -1.60200e-09              0.00000
   ucn_00_038_013_000          ucn            0.0490402            0.0490402          6.78000e-10              0.00000
   ucn_00_038_014_000          ucn            0.0483294            0.0483294          2.89000e-10              0.00000
   ucn_00_038_015_000          ucn            0.0556913            0.0556913          1.96000e-10              0.00000
   ucn_00_038_016_000          ucn            0.0546475            0.0546476         -1.30000e-11              0.00000
   ucn_00_039_005_000          ucn            0.0616234            0.0616234          2.36000e-10              0.00000
   ucn_00_039_006_000          ucn            0.0616124            0.0616124          1.15800e-09              0.00000
   ucn_00_039_007_000          ucn            0.0546475            0.0546475          1.75600e-09              0.00000
   ucn_00_039_008_000          ucn            0.0585242            0.0585242          2.04000e-10              0.00000
   ucn_00_039_009_000          ucn            0.0606790            0.0606790         -1.10700e-09              0.00000
   ucn_00_039_010_000          ucn            0.0596133            0.0596133         -7.90000e-11              0.00000
   ucn_00_039_011_000          ucn            0.0601565            0.0601565         -4.67000e-10              0.00000
   ucn_00_039_012_000          ucn            0.0613624            0.0613624         -5.30000e-11              0.00000
   ucn_00_039_013_000          ucn            0.0645102            0.0645102          2.50000e-10              0.00000
   ucn_00_039_014_000          ucn            0.0589994            0.0589994          5.86000e-10              0.00000

Final composite objective function 
  Final phi                                           Total : 0.000629294
  Contribution to phi from observation group    "gw_coco1c" : 0.00000
  Contribution to phi from observation group      "sw_pr1c" : 0.00000
  Contribution to phi from observation group    "sw_coco1c" : 0.00000
  Contribution to phi from observation group  "flx_constan" : 0.00000
  Contribution to phi from observation group  "flx_recharg" : 0.00000
  Contribution to phi from observation group          "hds" : 0.00000
  Contribution to phi from observation group  "vol_storage" : 0.00000
  Contribution to phi from observation group    "sw_coco1f" : 0.00000
  Contribution to phi from observation group    "vol_wells" : 0.00000
  Contribution to phi from observation group  "sw_intost1f" : 0.00000
  Contribution to phi from observation group   "flx_in-out" : 0.00000
  Contribution to phi from observation group    "sw_stde1c" : 0.00000
  Contribution to phi from observation group  "vol_stream_" : 0.00000
  Contribution to phi from observation group  "sw_sttogw1c" : 0.00000
  Contribution to phi from observation group  "sw_gwtost1c" : 0.00000
  Contribution to phi from observation group  "sw_intost1c" : 0.00000
  Contribution to phi from observation group         "gwcn" : 0.00000
  Contribution to phi from observation group      "sw_st1f" : 0.00000
  Contribution to phi from observation group      "sw_ru1f" : 0.00000
  Contribution to phi from observation group         "swgw" : 0.00000
  Contribution to phi from observation group  "gw_1sorre1c" : 0.00000
  Contribution to phi from observation group          "ucn" : 0.00000
  Contribution to phi from observation group  "sw_gwtost1f" : 0.00000
  Contribution to phi from observation group   "vol_in-out" : 0.00000
  Contribution to phi from observation group    "gw_malo1c" : 0.00000
  Contribution to phi from observation group    "vol_total" : 0.00000
  Contribution to phi from observation group  "less_wlconc" : 0.000537741
  Contribution to phi from observation group  "gw_mastfl1c" : 0.00000
  Contribution to phi from observation group      "sw_st1c" : 0.00000
  Contribution to phi from observation group    "sw_stac1f" : 0.00000
  Contribution to phi from observation group  "less_swconc" : 9.15529e-05
  Contribution to phi from observation group  "vol_recharg" : 0.00000
  Contribution to phi from observation group    "gw_cohe1c" : 0.00000
  Contribution to phi from observation group      "gw_we1c" : 0.00000
  Contribution to phi from observation group  "flx_stream_" : 0.00000
  Contribution to phi from observation group  "gw_mastso1c" : 0.00000
  Contribution to phi from observation group  "flx_storage" : 0.00000
  Contribution to phi from observation group  "vol_constan" : 0.00000
  Contribution to phi from observation group    "sw_stde1f" : 0.00000
  Contribution to phi from observation group    "sw_stac1c" : 0.00000
  Contribution to phi from observation group    "flx_total" : 0.00000
  Contribution to phi from observation group      "gw_re1c" : 0.00000
  Contribution to phi from observation group      "sw_pr1f" : 0.00000
  Contribution to phi from observation group    "flx_wells" : 0.00000
  Contribution to phi from observation group  "vol_percent" : 0.00000
  Contribution to phi from observation group      "gw_st1c" : 0.00000
  Contribution to phi from observation group      "sw_ru1c" : 0.00000
  Contribution to phi from observation group  "sw_sttogw1f" : 0.00000
  Contribution to phi from observation group  "flx_percent" : 0.00000


Number of forward model runs performed during optimiztion: 1
