             PEST++ Version 3.7.0

                 by Dave Welter
     Computational Water Resource Engineering



using control file: "freyberg.pst"

noptmax = 0, resetting max_run_fail = 1

PEST++ run mode:- 
   estimation

Case dimensions:- 
    Number of parameters = 2155
    Number of adjustable parameters = 2155
    Number of observations = 1656
    Number of prior estimates = 0

PEST Control Information
    relparmax = 10
    facparmax = 10
    facorig = 0.001
    phiredswh = 0.1
    noptmax = 0
    phiredstp = 0.01
    nphistp = 3
    nphinored = 3
    relparstp = 0.01
    nrelpar = 3

PEST++ Options
    n_iter_base = 1                   
    n_iter_super = 0                   
    max_n_super = 2155                
    super eigthres = 1e-06               
    svd pack = 2                   
    auto norm = -999                
    super relparmax = 0.1                 
    max super frz iter = 5                   
    mat inv = 1                   
    max run fail = 1                   
    max reg iter = 20                  
    use jacobian scaling a la PEST? =  yes
    lambdas = 
            0.1
              1
             10
            100
           1000
    lambda scaling factors = 
            0.9
            0.8
            0.7
            0.5
    using FOSM-based uncertainty estimation for parameters
    parameter covariance file =                     
    derivative run failure forgive = 1              
    run overdue reschedule factor = 1.15                
    run overdue giveup factor = 100                 
    base parameter jacobian filename =                     
    prior parameter covariance upgrade scaling factor = -999      


Model command line(s):- 
    python forward_run.py

Model interface files:-
    template files:
      WEL_0000.dat.tpl
      WEL_0001.dat.tpl
      WEL_0002.dat.tpl
      hk0.dat_gr.tpl
      rech0.dat_gr.tpl
      hk1.dat_cn.tpl
      rech1.dat_cn.tpl
      sfr_seg_pars.dat.tpl
      freyberg.mt3d.ssm.tpl
    model input files:
      bc_mlt/WEL_0000.dat
      bc_mlt/WEL_0001.dat
      bc_mlt/WEL_0002.dat
      arr_mlt/hk0.dat_gr
      arr_mlt/rech0.dat_gr
      arr_mlt/hk1.dat_cn
      arr_mlt/rech1.dat_cn
      sfr_seg_pars.dat
      freyberg.mt3d.ssm

    instruction files:
      flux.dat.ins
      freyberg.hds.dat.ins
      vol.dat.ins
      mtlist_gw.dat.ins
      mtlist_sw.dat.ins
      freyberg.mt3d.processed.ins
      MT3D001.ucn.dat.ins
    model output files:
      flux.dat
      freyberg.hds.dat
      vol.dat
      mtlist_gw.dat
      mtlist_sw.dat
      freyberg.mt3d.processed
      MT3D001.ucn.dat


Parameter group information
NAME            INCREMENT TYPE     DERIVATIVE INCREMENT    INCREMENT LOWER BOUND  FORCE CENTRAL     INCREMENT MULTIPLIER
kg                    ABSOLUTE                     0.01                        0         SWITCH                        2
grrech0               RELATIVE                     0.01                        0         SWITCH                        2
grhk0                 RELATIVE                     0.01                        0         SWITCH                        2
hcond1                RELATIVE                     0.01                        0         SWITCH                        2
wflux_002             RELATIVE                     0.01                        0         SWITCH                        2
wflux_000             RELATIVE                     0.01                        0         SWITCH                        2
wflux_001             RELATIVE                     0.01                        0         SWITCH                        2
cn                    RELATIVE                     0.01                        0         SWITCH                        2



Parameter information
NAME           TRANSFORMATION        CHANGE LIMIT  INITIAL VALUE    LOWER BOUND    UPPER BOUND          GROUP          SCALE         OFFSET  DERIVATIVE COMMAND
hcond1_0001    log                     FACTOR              1           0.01            100         hcond1              1              0                   0
hcond1_0002    log                     FACTOR              1           0.01            100         hcond1              1              0                   0
hcond1_0003    log                     FACTOR              1           0.01            100         hcond1              1              0                   0
hcond1_0004    log                     FACTOR              1           0.01            100         hcond1              1              0                   0
hcond1_0005    log                     FACTOR              1           0.01            100         hcond1              1              0                   0
hcond1_0006    log                     FACTOR              1           0.01            100         hcond1              1              0                   0
hcond1_0007    log                     FACTOR              1           0.01            100         hcond1              1              0                   0
hcond1_0008    log                     FACTOR              1           0.01            100         hcond1              1              0                   0
hcond1_0009    log                     FACTOR              1           0.01            100         hcond1              1              0                   0
hcond1_0010    log                     FACTOR              1           0.01            100         hcond1              1              0                   0
hcond1_0011    log                     FACTOR              1           0.01            100         hcond1              1              0                   0
hcond1_0012    log                     FACTOR              1           0.01            100         hcond1              1              0                   0
hcond1_0013    log                     FACTOR              1           0.01            100         hcond1              1              0                   0
hcond1_0014    log                     FACTOR              1           0.01            100         hcond1              1              0                   0
hcond1_0015    log                     FACTOR              1           0.01            100         hcond1              1              0                   0
hcond1_0016    log                     FACTOR              1           0.01            100         hcond1              1              0                   0
hcond1_0017    log                     FACTOR              1           0.01            100         hcond1              1              0                   0
hcond1_0018    log                     FACTOR              1           0.01            100         hcond1              1              0                   0
hcond1_0019    log                     FACTOR              1           0.01            100         hcond1              1              0                   0
hcond1_0020    log                     FACTOR              1           0.01            100         hcond1              1              0                   0
hcond1_0021    log                     FACTOR              1           0.01            100         hcond1              1              0                   0
hcond1_0022    log                     FACTOR              1           0.01            100         hcond1              1              0                   0
hcond1_0023    log                     FACTOR              1           0.01            100         hcond1              1              0                   0
hcond1_0024    log                     FACTOR              1           0.01            100         hcond1              1              0                   0
hcond1_0025    log                     FACTOR              1           0.01            100         hcond1              1              0                   0
hcond1_0026    log                     FACTOR              1           0.01            100         hcond1              1              0                   0
hcond1_0027    log                     FACTOR              1           0.01            100         hcond1              1              0                   0
hcond1_0028    log                     FACTOR              1           0.01            100         hcond1              1              0                   0
hcond1_0029    log                     FACTOR              1           0.01            100         hcond1              1              0                   0
hcond1_0030    log                     FACTOR              1           0.01            100         hcond1              1              0                   0
hcond1_0031    log                     FACTOR              1           0.01            100         hcond1              1              0                   0
hcond1_0032    log                     FACTOR              1           0.01            100         hcond1              1              0                   0
hcond1_0033    log                     FACTOR              1           0.01            100         hcond1              1              0                   0
hcond1_0034    log                     FACTOR              1           0.01            100         hcond1              1              0                   0
hcond1_0035    log                     FACTOR              1           0.01            100         hcond1              1              0                   0
hcond1_0036    log                     FACTOR              1           0.01            100         hcond1              1              0                   0
hcond1_0037    log                     FACTOR              1           0.01            100         hcond1              1              0                   0
hcond1_0038    log                     FACTOR              1           0.01            100         hcond1              1              0                   0
hcond1_0039    log                     FACTOR              1           0.01            100         hcond1              1              0                   0
hcond1_0040    log                     FACTOR              1           0.01            100         hcond1              1              0                   0
hk0000000      log                     FACTOR              1           0.01            100          grhk0              1              0                   0
hk0000001      log                     FACTOR              1           0.01            100          grhk0              1              0                   0
hk0000002      log                     FACTOR              1           0.01            100          grhk0              1              0                   0
hk0000003      log                     FACTOR              1           0.01            100          grhk0              1              0                   0
hk0000004      log                     FACTOR              1           0.01            100          grhk0              1              0                   0
hk0000005      log                     FACTOR              1           0.01            100          grhk0              1              0                   0
hk0000006      log                     FACTOR              1           0.01            100          grhk0              1              0                   0
hk0000007      log                     FACTOR              1           0.01            100          grhk0              1              0                   0
hk0000008      log                     FACTOR              1           0.01            100          grhk0              1              0                   0
hk0000009      log                     FACTOR              1           0.01            100          grhk0              1              0                   0
hk0000010      log                     FACTOR              1           0.01            100          grhk0              1              0                   0
hk0000011      log                     FACTOR              1           0.01            100          grhk0              1              0                   0
hk0000012      log                     FACTOR              1           0.01            100          grhk0              1              0                   0
hk0000013      log                     FACTOR              1           0.01            100          grhk0              1              0                   0
hk0000014      log                     FACTOR              1           0.01            100          grhk0              1              0                   0
hk0000015      log                     FACTOR              1           0.01            100          grhk0              1              0                   0
hk0000016      log                     FACTOR              1           0.01            100          grhk0              1              0                   0
hk0000017      log                     FACTOR              1           0.01            100          grhk0              1              0                   0
hk0000018      log                     FACTOR              1           0.01            100          grhk0              1              0                   0
hk0000019      log                     FACTOR              1           0.01            100          grhk0              1              0                   0
hk0001000      log                     FACTOR              1           0.01            100          grhk0              1              0                   0
hk0001001      log                     FACTOR              1           0.01            100          grhk0              1              0                   0
hk0001002      log                     FACTOR              1           0.01            100          grhk0              1              0                   0
hk0001003      log                     FACTOR              1           0.01            100          grhk0              1              0                   0
hk0001004      log                     FACTOR              1           0.01            100          grhk0              1              0                   0
hk0001005      log                     FACTOR              1           0.01            100          grhk0              1              0                   0
hk0001006      log                     FACTOR              1           0.01            100          grhk0              1              0                   0
hk0001007      log                     FACTOR              1           0.01            100          grhk0              1              0                   0
hk0001008      log                     FACTOR              1           0.01            100          grhk0              1              0                   0
hk0001009      log                     FACTOR              1           0.01            100          grhk0              1              0                   0
hk0001010      log                     FACTOR              1           0.01            100          grhk0              1              0                   0
hk0001011      log                     FACTOR              1           0.01            100          grhk0              1              0                   0
hk0001012      log                     FACTOR              1           0.01            100          grhk0              1              0                   0
hk0001013      log                     FACTOR              1           0.01            100          grhk0              1              0                   0
hk0001014      log                     FACTOR              1           0.01            100          grhk0              1              0                   0
hk0001015      log                     FACTOR              1           0.01            100          grhk0              1              0                   0
hk0001016      log                     FACTOR              1           0.01            100          grhk0              1              0                   0
hk0001017      log                     FACTOR              1           0.01            100          grhk0              1              0                   0
hk0001018      log                     FACTOR              1           0.01            100          grhk0              1              0                   0
hk0001019      log                     FACTOR              1           0.01            100          grhk0              1              0                   0
hk0002000      log                     FACTOR              1           0.01            100          grhk0              1              0                   0
hk0002001      log                     FACTOR              1           0.01            100          grhk0              1              0                   0
hk0002002      log                     FACTOR              1           0.01            100          grhk0              1              0                   0
hk0002003      log                     FACTOR              1           0.01            100          grhk0              1              0                   0
hk0002004      log                     FACTOR              1           0.01            100          grhk0              1              0                   0
hk0002005      log                     FACTOR              1           0.01            100          grhk0              1              0                   0
hk0002006      log                     FACTOR              1           0.01            100          grhk0              1              0                   0
hk0002007      log                     FACTOR              1           0.01            100          grhk0              1              0                   0
hk0002008      log                     FACTOR              1           0.01            100          grhk0              1              0                   0
hk0002009      log                     FACTOR              1           0.01            100          grhk0              1              0                   0
hk0002010      log                     FACTOR              1           0.01            100          grhk0              1              0                   0
hk0002011      log                     FACTOR              1           0.01            100          grhk0              1              0                   0
hk0002012      log                     FACTOR              1           0.01            100          grhk0              1              0                   0
hk0002013      log                     FACTOR              1           0.01            100          grhk0              1              0                   0
hk0002014      log                     FACTOR              1           0.01            100          grhk0              1              0                   0
hk0002015      log                     FACTOR              1           0.01            100          grhk0              1              0                   0
hk0002016      log                     FACTOR              1           0.01            100          grhk0              1              0                   0
hk0002017      log                     FACTOR              1           0.01            100          grhk0              1              0                   0
hk0002018      log                     FACTOR              1           0.01            100          grhk0              1              0                   0
hk0002019      log                     FACTOR              1           0.01            100          grhk0              1              0                   0
hk0003000      log                     FACTOR              1           0.01            100          grhk0              1              0                   0
hk0003001      log                     FACTOR              1           0.01            100          grhk0              1              0                   0
hk0003002      log                     FACTOR              1           0.01            100          grhk0              1              0                   0
hk0003003      log                     FACTOR              1           0.01            100          grhk0              1              0                   0
hk0003004      log                     FACTOR              1           0.01            100          grhk0              1              0                   0
hk0003005      log                     FACTOR              1           0.01            100          grhk0              1              0                   0
hk0003006      log                     FACTOR              1           0.01            100          grhk0              1              0                   0
hk0003007      log                     FACTOR              1           0.01            100          grhk0              1              0                   0
hk0003008      log                     FACTOR              1           0.01            100          grhk0              1              0                   0
hk0003009      log                     FACTOR              1           0.01            100          grhk0              1              0                   0
hk0003010      log                     FACTOR              1           0.01            100          grhk0              1              0                   0
hk0003011      log                     FACTOR              1           0.01            100          grhk0              1              0                   0
hk0003012      log                     FACTOR              1           0.01            100          grhk0              1              0                   0
hk0003013      log                     FACTOR              1           0.01            100          grhk0              1              0                   0
hk0003014      log                     FACTOR              1           0.01            100          grhk0              1              0                   0
hk0003015      log                     FACTOR              1           0.01            100          grhk0              1              0                   0
hk0003016      log                     FACTOR              1           0.01            100          grhk0              1              0                   0
hk0003017      log                     FACTOR              1           0.01            100          grhk0              1              0                   0
hk0003018      log                     FACTOR              1           0.01            100          grhk0              1              0                   0
hk0003019      log                     FACTOR              1           0.01            100          grhk0              1              0                   0
hk0004000      log                     FACTOR              1           0.01            100          grhk0              1              0                   0
hk0004001      log                     FACTOR              1           0.01            100          grhk0              1              0                   0
hk0004002      log                     FACTOR              1           0.01            100          grhk0              1              0                   0
hk0004003      log                     FACTOR              1           0.01            100          grhk0              1              0                   0
hk0004004      log                     FACTOR              1           0.01            100          grhk0              1              0                   0
hk0004005      log                     FACTOR              1           0.01            100          grhk0              1              0                   0
hk0004006      log                     FACTOR              1           0.01            100          grhk0              1              0                   0
hk0004007      log                     FACTOR              1           0.01            100          grhk0              1              0                   0
hk0004008      log                     FACTOR              1           0.01            100          grhk0              1              0                   0
hk0004009      log                     FACTOR              1           0.01            100          grhk0              1              0                   0
hk0004010      log                     FACTOR              1           0.01            100          grhk0              1              0                   0
hk0004011      log                     FACTOR              1           0.01            100          grhk0              1              0                   0
hk0004012      log                     FACTOR              1           0.01            100          grhk0              1              0                   0
hk0004013      log                     FACTOR              1           0.01            100          grhk0              1              0                   0
hk0004014      log                     FACTOR              1           0.01            100          grhk0              1              0                   0
hk0004015      log                     FACTOR              1           0.01            100          grhk0              1              0                   0
hk0004016      log                     FACTOR              1           0.01            100          grhk0              1              0                   0
hk0004017      log                     FACTOR              1           0.01            100          grhk0              1              0                   0
hk0004018      log                     FACTOR              1           0.01            100          grhk0              1              0                   0
hk0004019      log                     FACTOR              1           0.01            100          grhk0              1              0                   0
hk0005000      log                     FACTOR              1           0.01            100          grhk0              1              0                   0
hk0005001      log                     FACTOR              1           0.01            100          grhk0              1              0                   0
hk0005002      log                     FACTOR              1           0.01            100          grhk0              1              0                   0
hk0005003      log                     FACTOR              1           0.01            100          grhk0              1              0                   0
hk0005004      log                     FACTOR              1           0.01            100          grhk0              1              0                   0
hk0005005      log                     FACTOR              1           0.01            100          grhk0              1              0                   0
hk0005006      log                     FACTOR              1           0.01            100          grhk0              1              0                   0
hk0005007      log                     FACTOR              1           0.01            100          grhk0              1              0                   0
hk0005008      log                     FACTOR              1           0.01            100          grhk0              1              0                   0
hk0005009      log                     FACTOR              1           0.01            100          grhk0              1              0                   0
hk0005010      log                     FACTOR              1           0.01            100          grhk0              1              0                   0
hk0005011      log                     FACTOR              1           0.01            100          grhk0              1              0                   0
hk0005012      log                     FACTOR              1           0.01            100          grhk0              1              0                   0
hk0005013      log                     FACTOR              1           0.01            100          grhk0              1              0                   0
hk0005014      log                     FACTOR              1           0.01            100          grhk0              1              0                   0
hk0005015      log                     FACTOR              1           0.01            100          grhk0              1              0                   0
hk0005016      log                     FACTOR              1           0.01            100          grhk0              1              0                   0
hk0005017      log                     FACTOR              1           0.01            100          grhk0              1              0                   0
hk0005018      log                     FACTOR              1           0.01            100          grhk0              1              0                   0
hk0005019      log                     FACTOR              1           0.01            100          grhk0              1              0                   0
hk0006000      log                     FACTOR              1           0.01            100          grhk0              1              0                   0
hk0006001      log                     FACTOR              1           0.01            100          grhk0              1              0                   0
hk0006002      log                     FACTOR              1           0.01            100          grhk0              1              0                   0
hk0006003      log                     FACTOR              1           0.01            100          grhk0              1              0                   0
hk0006004      log                     FACTOR              1           0.01            100          grhk0              1              0                   0
hk0006005      log                     FACTOR              1           0.01            100          grhk0              1              0                   0
hk0006006      log                     FACTOR              1           0.01            100          grhk0              1              0                   0
hk0006007      log                     FACTOR              1           0.01            100          grhk0              1              0                   0
hk0006008      log                     FACTOR              1           0.01            100          grhk0              1              0                   0
hk0006009      log                     FACTOR              1           0.01            100          grhk0              1              0                   0
hk0006010      log                     FACTOR              1           0.01            100          grhk0              1              0                   0
hk0006011      log                     FACTOR              1           0.01            100          grhk0              1              0                   0
hk0006012      log                     FACTOR              1           0.01            100          grhk0              1              0                   0
hk0006013      log                     FACTOR              1           0.01            100          grhk0              1              0                   0
hk0006014      log                     FACTOR              1           0.01            100          grhk0              1              0                   0
hk0006015      log                     FACTOR              1           0.01            100          grhk0              1              0                   0
hk0006016      log                     FACTOR              1           0.01            100          grhk0              1              0                   0
hk0006017      log                     FACTOR              1           0.01            100          grhk0              1              0                   0
hk0006018      log                     FACTOR              1           0.01            100          grhk0              1              0                   0
hk0006019      log                     FACTOR              1           0.01            100          grhk0              1              0                   0
hk0007000      log                     FACTOR              1           0.01            100          grhk0              1              0                   0
hk0007001      log                     FACTOR              1           0.01            100          grhk0              1              0                   0
hk0007002      log                     FACTOR              1           0.01            100          grhk0              1              0                   0
hk0007003      log                     FACTOR              1           0.01            100          grhk0              1              0                   0
hk0007004      log                     FACTOR              1           0.01            100          grhk0              1              0                   0
hk0007005      log                     FACTOR              1           0.01            100          grhk0              1              0                   0
hk0007006      log                     FACTOR              1           0.01            100          grhk0              1              0                   0
hk0007007      log                     FACTOR              1           0.01            100          grhk0              1              0                   0
hk0007008      log                     FACTOR              1           0.01            100          grhk0              1              0                   0
hk0007009      log                     FACTOR              1           0.01            100          grhk0              1              0                   0
hk0007010      log                     FACTOR              1           0.01            100          grhk0              1              0                   0
hk0007011      log                     FACTOR              1           0.01            100          grhk0              1              0                   0
hk0007012      log                     FACTOR              1           0.01            100          grhk0              1              0                   0
hk0007013      log                     FACTOR              1           0.01            100          grhk0              1              0                   0
hk0007014      log                     FACTOR              1           0.01            100          grhk0              1              0                   0
hk0007015      log                     FACTOR              1           0.01            100          grhk0              1              0                   0
hk0007016      log                     FACTOR              1           0.01            100          grhk0              1              0                   0
hk0007017      log                     FACTOR              1           0.01            100          grhk0              1              0                   0
hk0007018      log                     FACTOR              1           0.01            100          grhk0              1              0                   0
hk0007019      log                     FACTOR              1           0.01            100          grhk0              1              0                   0
hk0008000      log                     FACTOR              1           0.01            100          grhk0              1              0                   0
hk0008001      log                     FACTOR              1           0.01            100          grhk0              1              0                   0
hk0008002      log                     FACTOR              1           0.01            100          grhk0              1              0                   0
hk0008003      log                     FACTOR              1           0.01            100          grhk0              1              0                   0
hk0008007      log                     FACTOR              1           0.01            100          grhk0              1              0                   0
hk0008008      log                     FACTOR              1           0.01            100          grhk0              1              0                   0
hk0008009      log                     FACTOR              1           0.01            100          grhk0              1              0                   0
hk0008010      log                     FACTOR              1           0.01            100          grhk0              1              0                   0
hk0008011      log                     FACTOR              1           0.01            100          grhk0              1              0                   0
hk0008012      log                     FACTOR              1           0.01            100          grhk0              1              0                   0
hk0008013      log                     FACTOR              1           0.01            100          grhk0              1              0                   0
hk0008014      log                     FACTOR              1           0.01            100          grhk0              1              0                   0
hk0008015      log                     FACTOR              1           0.01            100          grhk0              1              0                   0
hk0008016      log                     FACTOR              1           0.01            100          grhk0              1              0                   0
hk0008017      log                     FACTOR              1           0.01            100          grhk0              1              0                   0
hk0008018      log                     FACTOR              1           0.01            100          grhk0              1              0                   0
hk0008019      log                     FACTOR              1           0.01            100          grhk0              1              0                   0
hk0009000      log                     FACTOR              1           0.01            100          grhk0              1              0                   0
hk0009001      log                     FACTOR              1           0.01            100          grhk0              1              0                   0
hk0009002      log                     FACTOR              1           0.01            100          grhk0              1              0                   0
hk0009003      log                     FACTOR              1           0.01            100          grhk0              1              0                   0
hk0009008      log                     FACTOR              1           0.01            100          grhk0              1              0                   0
hk0009009      log                     FACTOR              1           0.01            100          grhk0              1              0                   0
hk0009010      log                     FACTOR              1           0.01            100          grhk0              1              0                   0
hk0009011      log                     FACTOR              1           0.01            100          grhk0              1              0                   0
hk0009012      log                     FACTOR              1           0.01            100          grhk0              1              0                   0
hk0009013      log                     FACTOR              1           0.01            100          grhk0              1              0                   0
hk0009014      log                     FACTOR              1           0.01            100          grhk0              1              0                   0
hk0009015      log                     FACTOR              1           0.01            100          grhk0              1              0                   0
hk0009016      log                     FACTOR              1           0.01            100          grhk0              1              0                   0
hk0009017      log                     FACTOR              1           0.01            100          grhk0              1              0                   0
hk0009018      log                     FACTOR              1           0.01            100          grhk0              1              0                   0
hk0009019      log                     FACTOR              1           0.01            100          grhk0              1              0                   0
hk0010000      log                     FACTOR              1           0.01            100          grhk0              1              0                   0
hk0010001      log                     FACTOR              1           0.01            100          grhk0              1              0                   0
hk0010002      log                     FACTOR              1           0.01            100          grhk0              1              0                   0
hk0010003      log                     FACTOR              1           0.01            100          grhk0              1              0                   0
hk0010008      log                     FACTOR              1           0.01            100          grhk0              1              0                   0
hk0010009      log                     FACTOR              1           0.01            100          grhk0              1              0                   0
hk0010010      log                     FACTOR              1           0.01            100          grhk0              1              0                   0
hk0010011      log                     FACTOR              1           0.01            100          grhk0              1              0                   0
hk0010012      log                     FACTOR              1           0.01            100          grhk0              1              0                   0
hk0010013      log                     FACTOR              1           0.01            100          grhk0              1              0                   0
hk0010014      log                     FACTOR              1           0.01            100          grhk0              1              0                   0
hk0010015      log                     FACTOR              1           0.01            100          grhk0              1              0                   0
hk0010016      log                     FACTOR              1           0.01            100          grhk0              1              0                   0
hk0010017      log                     FACTOR              1           0.01            100          grhk0              1              0                   0
hk0010018      log                     FACTOR              1           0.01            100          grhk0              1              0                   0
hk0010019      log                     FACTOR              1           0.01            100          grhk0              1              0                   0
hk0011000      log                     FACTOR              1           0.01            100          grhk0              1              0                   0
hk0011001      log                     FACTOR              1           0.01            100          grhk0              1              0                   0
hk0011002      log                     FACTOR              1           0.01            100          grhk0              1              0                   0
hk0011003      log                     FACTOR              1           0.01            100          grhk0              1              0                   0
hk0011008      log                     FACTOR              1           0.01            100          grhk0              1              0                   0
hk0011009      log                     FACTOR              1           0.01            100          grhk0              1              0                   0
hk0011010      log                     FACTOR              1           0.01            100          grhk0              1              0                   0
hk0011011      log                     FACTOR              1           0.01            100          grhk0              1              0                   0
hk0011012      log                     FACTOR              1           0.01            100          grhk0              1              0                   0
hk0011013      log                     FACTOR              1           0.01            100          grhk0              1              0                   0
hk0011014      log                     FACTOR              1           0.01            100          grhk0              1              0                   0
hk0011015      log                     FACTOR              1           0.01            100          grhk0              1              0                   0
hk0011016      log                     FACTOR              1           0.01            100          grhk0              1              0                   0
hk0011017      log                     FACTOR              1           0.01            100          grhk0              1              0                   0
hk0011018      log                     FACTOR              1           0.01            100          grhk0              1              0                   0
hk0011019      log                     FACTOR              1           0.01            100          grhk0              1              0                   0
hk0012000      log                     FACTOR              1           0.01            100          grhk0              1              0                   0
hk0012001      log                     FACTOR              1           0.01            100          grhk0              1              0                   0
hk0012002      log                     FACTOR              1           0.01            100          grhk0              1              0                   0
hk0012003      log                     FACTOR              1           0.01            100          grhk0              1              0                   0
hk0012008      log                     FACTOR              1           0.01            100          grhk0              1              0                   0
hk0012009      log                     FACTOR              1           0.01            100          grhk0              1              0                   0
hk0012010      log                     FACTOR              1           0.01            100          grhk0              1              0                   0
hk0012011      log                     FACTOR              1           0.01            100          grhk0              1              0                   0
hk0012012      log                     FACTOR              1           0.01            100          grhk0              1              0                   0
hk0012013      log                     FACTOR              1           0.01            100          grhk0              1              0                   0
hk0012014      log                     FACTOR              1           0.01            100          grhk0              1              0                   0
hk0012015      log                     FACTOR              1           0.01            100          grhk0              1              0                   0
hk0012016      log                     FACTOR              1           0.01            100          grhk0              1              0                   0
hk0012017      log                     FACTOR              1           0.01            100          grhk0              1              0                   0
hk0012018      log                     FACTOR              1           0.01            100          grhk0              1              0                   0
hk0012019      log                     FACTOR              1           0.01            100          grhk0              1              0                   0
hk0013000      log                     FACTOR              1           0.01            100          grhk0              1              0                   0
hk0013001      log                     FACTOR              1           0.01            100          grhk0              1              0                   0
hk0013002      log                     FACTOR              1           0.01            100          grhk0              1              0                   0
hk0013003      log                     FACTOR              1           0.01            100          grhk0              1              0                   0
hk0013008      log                     FACTOR              1           0.01            100          grhk0              1              0                   0
hk0013009      log                     FACTOR              1           0.01            100          grhk0              1              0                   0
hk0013010      log                     FACTOR              1           0.01            100          grhk0              1              0                   0
hk0013011      log                     FACTOR              1           0.01            100          grhk0              1              0                   0
hk0013012      log                     FACTOR              1           0.01            100          grhk0              1              0                   0
hk0013013      log                     FACTOR              1           0.01            100          grhk0              1              0                   0
hk0013014      log                     FACTOR              1           0.01            100          grhk0              1              0                   0
hk0013015      log                     FACTOR              1           0.01            100          grhk0              1              0                   0
hk0013016      log                     FACTOR              1           0.01            100          grhk0              1              0                   0
hk0013017      log                     FACTOR              1           0.01            100          grhk0              1              0                   0
hk0013018      log                     FACTOR              1           0.01            100          grhk0              1              0                   0
hk0013019      log                     FACTOR              1           0.01            100          grhk0              1              0                   0
hk0014000      log                     FACTOR              1           0.01            100          grhk0              1              0                   0
hk0014001      log                     FACTOR              1           0.01            100          grhk0              1              0                   0
hk0014002      log                     FACTOR              1           0.01            100          grhk0              1              0                   0
hk0014003      log                     FACTOR              1           0.01            100          grhk0              1              0                   0
hk0014008      log                     FACTOR              1           0.01            100          grhk0              1              0                   0
hk0014009      log                     FACTOR              1           0.01            100          grhk0              1              0                   0
hk0014010      log                     FACTOR              1           0.01            100          grhk0              1              0                   0
hk0014011      log                     FACTOR              1           0.01            100          grhk0              1              0                   0
hk0014012      log                     FACTOR              1           0.01            100          grhk0              1              0                   0
hk0014013      log                     FACTOR              1           0.01            100          grhk0              1              0                   0
hk0014014      log                     FACTOR              1           0.01            100          grhk0              1              0                   0
hk0014015      log                     FACTOR              1           0.01            100          grhk0              1              0                   0
hk0014016      log                     FACTOR              1           0.01            100          grhk0              1              0                   0
hk0014017      log                     FACTOR              1           0.01            100          grhk0              1              0                   0
hk0014018      log                     FACTOR              1           0.01            100          grhk0              1              0                   0
hk0014019      log                     FACTOR              1           0.01            100          grhk0              1              0                   0
hk0015000      log                     FACTOR              1           0.01            100          grhk0              1              0                   0
hk0015001      log                     FACTOR              1           0.01            100          grhk0              1              0                   0
hk0015002      log                     FACTOR              1           0.01            100          grhk0              1              0                   0
hk0015003      log                     FACTOR              1           0.01            100          grhk0              1              0                   0
hk0015008      log                     FACTOR              1           0.01            100          grhk0              1              0                   0
hk0015009      log                     FACTOR              1           0.01            100          grhk0              1              0                   0
hk0015010      log                     FACTOR              1           0.01            100          grhk0              1              0                   0
hk0015011      log                     FACTOR              1           0.01            100          grhk0              1              0                   0
hk0015012      log                     FACTOR              1           0.01            100          grhk0              1              0                   0
hk0015013      log                     FACTOR              1           0.01            100          grhk0              1              0                   0
hk0015014      log                     FACTOR              1           0.01            100          grhk0              1              0                   0
hk0015015      log                     FACTOR              1           0.01            100          grhk0              1              0                   0
hk0015016      log                     FACTOR              1           0.01            100          grhk0              1              0                   0
hk0015017      log                     FACTOR              1           0.01            100          grhk0              1              0                   0
hk0015018      log                     FACTOR              1           0.01            100          grhk0              1              0                   0
hk0015019      log                     FACTOR              1           0.01            100          grhk0              1              0                   0
hk0016000      log                     FACTOR              1           0.01            100          grhk0              1              0                   0
hk0016001      log                     FACTOR              1           0.01            100          grhk0              1              0                   0
hk0016002      log                     FACTOR              1           0.01            100          grhk0              1              0                   0
hk0016003      log                     FACTOR              1           0.01            100          grhk0              1              0                   0
hk0016008      log                     FACTOR              1           0.01            100          grhk0              1              0                   0
hk0016009      log                     FACTOR              1           0.01            100          grhk0              1              0                   0
hk0016010      log                     FACTOR              1           0.01            100          grhk0              1              0                   0
hk0016011      log                     FACTOR              1           0.01            100          grhk0              1              0                   0
hk0016012      log                     FACTOR              1           0.01            100          grhk0              1              0                   0
hk0016013      log                     FACTOR              1           0.01            100          grhk0              1              0                   0
hk0016014      log                     FACTOR              1           0.01            100          grhk0              1              0                   0
hk0016015      log                     FACTOR              1           0.01            100          grhk0              1              0                   0
hk0016016      log                     FACTOR              1           0.01            100          grhk0              1              0                   0
hk0016017      log                     FACTOR              1           0.01            100          grhk0              1              0                   0
hk0016018      log                     FACTOR              1           0.01            100          grhk0              1              0                   0
hk0016019      log                     FACTOR              1           0.01            100          grhk0              1              0                   0
hk0017000      log                     FACTOR              1           0.01            100          grhk0              1              0                   0
hk0017001      log                     FACTOR              1           0.01            100          grhk0              1              0                   0
hk0017002      log                     FACTOR              1           0.01            100          grhk0              1              0                   0
hk0017003      log                     FACTOR              1           0.01            100          grhk0              1              0                   0
hk0017008      log                     FACTOR              1           0.01            100          grhk0              1              0                   0
hk0017009      log                     FACTOR              1           0.01            100          grhk0              1              0                   0
hk0017010      log                     FACTOR              1           0.01            100          grhk0              1              0                   0
hk0017011      log                     FACTOR              1           0.01            100          grhk0              1              0                   0
hk0017012      log                     FACTOR              1           0.01            100          grhk0              1              0                   0
hk0017013      log                     FACTOR              1           0.01            100          grhk0              1              0                   0
hk0017014      log                     FACTOR              1           0.01            100          grhk0              1              0                   0
hk0017015      log                     FACTOR              1           0.01            100          grhk0              1              0                   0
hk0017016      log                     FACTOR              1           0.01            100          grhk0              1              0                   0
hk0017017      log                     FACTOR              1           0.01            100          grhk0              1              0                   0
hk0017018      log                     FACTOR              1           0.01            100          grhk0              1              0                   0
hk0017019      log                     FACTOR              1           0.01            100          grhk0              1              0                   0
hk0018000      log                     FACTOR              1           0.01            100          grhk0              1              0                   0
hk0018001      log                     FACTOR              1           0.01            100          grhk0              1              0                   0
hk0018002      log                     FACTOR              1           0.01            100          grhk0              1              0                   0
hk0018003      log                     FACTOR              1           0.01            100          grhk0              1              0                   0
hk0018008      log                     FACTOR              1           0.01            100          grhk0              1              0                   0
hk0018009      log                     FACTOR              1           0.01            100          grhk0              1              0                   0
hk0018010      log                     FACTOR              1           0.01            100          grhk0              1              0                   0
hk0018011      log                     FACTOR              1           0.01            100          grhk0              1              0                   0
hk0018012      log                     FACTOR              1           0.01            100          grhk0              1              0                   0
hk0018013      log                     FACTOR              1           0.01            100          grhk0              1              0                   0
hk0018014      log                     FACTOR              1           0.01            100          grhk0              1              0                   0
hk0018015      log                     FACTOR              1           0.01            100          grhk0              1              0                   0
hk0018016      log                     FACTOR              1           0.01            100          grhk0              1              0                   0
hk0018017      log                     FACTOR              1           0.01            100          grhk0              1              0                   0
hk0018018      log                     FACTOR              1           0.01            100          grhk0              1              0                   0
hk0018019      log                     FACTOR              1           0.01            100          grhk0              1              0                   0
hk0019000      log                     FACTOR              1           0.01            100          grhk0              1              0                   0
hk0019001      log                     FACTOR              1           0.01            100          grhk0              1              0                   0
hk0019002      log                     FACTOR              1           0.01            100          grhk0              1              0                   0
hk0019003      log                     FACTOR              1           0.01            100          grhk0              1              0                   0
hk0019008      log                     FACTOR              1           0.01            100          grhk0              1              0                   0
hk0019009      log                     FACTOR              1           0.01            100          grhk0              1              0                   0
hk0019010      log                     FACTOR              1           0.01            100          grhk0              1              0                   0
hk0019011      log                     FACTOR              1           0.01            100          grhk0              1              0                   0
hk0019012      log                     FACTOR              1           0.01            100          grhk0              1              0                   0
hk0019013      log                     FACTOR              1           0.01            100          grhk0              1              0                   0
hk0019014      log                     FACTOR              1           0.01            100          grhk0              1              0                   0
hk0019015      log                     FACTOR              1           0.01            100          grhk0              1              0                   0
hk0019016      log                     FACTOR              1           0.01            100          grhk0              1              0                   0
hk0019017      log                     FACTOR              1           0.01            100          grhk0              1              0                   0
hk0019018      log                     FACTOR              1           0.01            100          grhk0              1              0                   0
hk0019019      log                     FACTOR              1           0.01            100          grhk0              1              0                   0
hk0020000      log                     FACTOR              1           0.01            100          grhk0              1              0                   0
hk0020001      log                     FACTOR              1           0.01            100          grhk0              1              0                   0
hk0020002      log                     FACTOR              1           0.01            100          grhk0              1              0                   0
hk0020003      log                     FACTOR              1           0.01            100          grhk0              1              0                   0
hk0020008      log                     FACTOR              1           0.01            100          grhk0              1              0                   0
hk0020009      log                     FACTOR              1           0.01            100          grhk0              1              0                   0
hk0020010      log                     FACTOR              1           0.01            100          grhk0              1              0                   0
hk0020011      log                     FACTOR              1           0.01            100          grhk0              1              0                   0
hk0020012      log                     FACTOR              1           0.01            100          grhk0              1              0                   0
hk0020013      log                     FACTOR              1           0.01            100          grhk0              1              0                   0
hk0020014      log                     FACTOR              1           0.01            100          grhk0              1              0                   0
hk0020015      log                     FACTOR              1           0.01            100          grhk0              1              0                   0
hk0020016      log                     FACTOR              1           0.01            100          grhk0              1              0                   0
hk0020017      log                     FACTOR              1           0.01            100          grhk0              1              0                   0
hk0020018      log                     FACTOR              1           0.01            100          grhk0              1              0                   0
hk0020019      log                     FACTOR              1           0.01            100          grhk0              1              0                   0
hk0021000      log                     FACTOR              1           0.01            100          grhk0              1              0                   0
hk0021001      log                     FACTOR              1           0.01            100          grhk0              1              0                   0
hk0021002      log                     FACTOR              1           0.01            100          grhk0              1              0                   0
hk0021003      log                     FACTOR              1           0.01            100          grhk0              1              0                   0
hk0021006      log                     FACTOR              1           0.01            100          grhk0              1              0                   0
hk0021007      log                     FACTOR              1           0.01            100          grhk0              1              0                   0
hk0021008      log                     FACTOR              1           0.01            100          grhk0              1              0                   0
hk0021009      log                     FACTOR              1           0.01            100          grhk0              1              0                   0
hk0021010      log                     FACTOR              1           0.01            100          grhk0              1              0                   0
hk0021011      log                     FACTOR              1           0.01            100          grhk0              1              0                   0
hk0021012      log                     FACTOR              1           0.01            100          grhk0              1              0                   0
hk0021013      log                     FACTOR              1           0.01            100          grhk0              1              0                   0
hk0021014      log                     FACTOR              1           0.01            100          grhk0              1              0                   0
hk0021015      log                     FACTOR              1           0.01            100          grhk0              1              0                   0
hk0021016      log                     FACTOR              1           0.01            100          grhk0              1              0                   0
hk0021017      log                     FACTOR              1           0.01            100          grhk0              1              0                   0
hk0021018      log                     FACTOR              1           0.01            100          grhk0              1              0                   0
hk0021019      log                     FACTOR              1           0.01            100          grhk0              1              0                   0
hk0022000      log                     FACTOR              1           0.01            100          grhk0              1              0                   0
hk0022001      log                     FACTOR              1           0.01            100          grhk0              1              0                   0
hk0022002      log                     FACTOR              1           0.01            100          grhk0              1              0                   0
hk0022003      log                     FACTOR              1           0.01            100          grhk0              1              0                   0
hk0022004      log                     FACTOR              1           0.01            100          grhk0              1              0                   0
hk0022006      log                     FACTOR              1           0.01            100          grhk0              1              0                   0
hk0022007      log                     FACTOR              1           0.01            100          grhk0              1              0                   0
hk0022008      log                     FACTOR              1           0.01            100          grhk0              1              0                   0
hk0022009      log                     FACTOR              1           0.01            100          grhk0              1              0                   0
hk0022010      log                     FACTOR              1           0.01            100          grhk0              1              0                   0
hk0022011      log                     FACTOR              1           0.01            100          grhk0              1              0                   0
hk0022012      log                     FACTOR              1           0.01            100          grhk0              1              0                   0
hk0022013      log                     FACTOR              1           0.01            100          grhk0              1              0                   0
hk0022014      log                     FACTOR              1           0.01            100          grhk0              1              0                   0
hk0022015      log                     FACTOR              1           0.01            100          grhk0              1              0                   0
hk0022016      log                     FACTOR              1           0.01            100          grhk0              1              0                   0
hk0022017      log                     FACTOR              1           0.01            100          grhk0              1              0                   0
hk0022018      log                     FACTOR              1           0.01            100          grhk0              1              0                   0
hk0022019      log                     FACTOR              1           0.01            100          grhk0              1              0                   0
hk0023000      log                     FACTOR              1           0.01            100          grhk0              1              0                   0
hk0023001      log                     FACTOR              1           0.01            100          grhk0              1              0                   0
hk0023002      log                     FACTOR              1           0.01            100          grhk0              1              0                   0
hk0023003      log                     FACTOR              1           0.01            100          grhk0              1              0                   0
hk0023004      log                     FACTOR              1           0.01            100          grhk0              1              0                   0
hk0023005      log                     FACTOR              1           0.01            100          grhk0              1              0                   0
hk0023006      log                     FACTOR              1           0.01            100          grhk0              1              0                   0
hk0023007      log                     FACTOR              1           0.01            100          grhk0              1              0                   0
hk0023008      log                     FACTOR              1           0.01            100          grhk0              1              0                   0
hk0023009      log                     FACTOR              1           0.01            100          grhk0              1              0                   0
hk0023010      log                     FACTOR              1           0.01            100          grhk0              1              0                   0
hk0023011      log                     FACTOR              1           0.01            100          grhk0              1              0                   0
hk0023012      log                     FACTOR              1           0.01            100          grhk0              1              0                   0
hk0023013      log                     FACTOR              1           0.01            100          grhk0              1              0                   0
hk0023014      log                     FACTOR              1           0.01            100          grhk0              1              0                   0
hk0023015      log                     FACTOR              1           0.01            100          grhk0              1              0                   0
hk0023016      log                     FACTOR              1           0.01            100          grhk0              1              0                   0
hk0023017      log                     FACTOR              1           0.01            100          grhk0              1              0                   0
hk0023018      log                     FACTOR              1           0.01            100          grhk0              1              0                   0
hk0023019      log                     FACTOR              1           0.01            100          grhk0              1              0                   0
hk0024000      log                     FACTOR              1           0.01            100          grhk0              1              0                   0
hk0024001      log                     FACTOR              1           0.01            100          grhk0              1              0                   0
hk0024002      log                     FACTOR              1           0.01            100          grhk0              1              0                   0
hk0024003      log                     FACTOR              1           0.01            100          grhk0              1              0                   0
hk0024004      log                     FACTOR              1           0.01            100          grhk0              1              0                   0
hk0024005      log                     FACTOR              1           0.01            100          grhk0              1              0                   0
hk0024006      log                     FACTOR              1           0.01            100          grhk0              1              0                   0
hk0024007      log                     FACTOR              1           0.01            100          grhk0              1              0                   0
hk0024008      log                     FACTOR              1           0.01            100          grhk0              1              0                   0
hk0024009      log                     FACTOR              1           0.01            100          grhk0              1              0                   0
hk0024010      log                     FACTOR              1           0.01            100          grhk0              1              0                   0
hk0024011      log                     FACTOR              1           0.01            100          grhk0              1              0                   0
hk0024012      log                     FACTOR              1           0.01            100          grhk0              1              0                   0
hk0024013      log                     FACTOR              1           0.01            100          grhk0              1              0                   0
hk0024014      log                     FACTOR              1           0.01            100          grhk0              1              0                   0
hk0024015      log                     FACTOR              1           0.01            100          grhk0              1              0                   0
hk0024016      log                     FACTOR              1           0.01            100          grhk0              1              0                   0
hk0024017      log                     FACTOR              1           0.01            100          grhk0              1              0                   0
hk0024018      log                     FACTOR              1           0.01            100          grhk0              1              0                   0
hk0024019      log                     FACTOR              1           0.01            100          grhk0              1              0                   0
hk0025000      log                     FACTOR              1           0.01            100          grhk0              1              0                   0
[...]
   ucn_00_031_001_002          ucn              0.00000              0.00000              0.00000              1.00000
   ucn_00_031_002_002          ucn              0.00000              0.00000              0.00000              1.00000
   ucn_00_031_003_002          ucn              0.00000              0.00000              0.00000              1.00000
   ucn_00_031_004_002          ucn              0.00000              0.00000              0.00000              1.00000
   ucn_00_031_005_002          ucn              0.00000              0.00000              0.00000              1.00000
   ucn_00_031_006_002          ucn              0.00000              0.00000              0.00000              1.00000
   ucn_00_031_007_002          ucn              0.00000              0.00000              0.00000              1.00000
   ucn_00_031_008_002          ucn              0.00000              0.00000              0.00000              1.00000
   ucn_00_031_009_002          ucn              0.00000              0.00000              0.00000              1.00000
   ucn_00_031_010_002          ucn              0.00000              0.00000              0.00000              1.00000
   ucn_00_031_011_002          ucn              0.00000              0.00000              0.00000              1.00000
   ucn_00_031_012_002          ucn              0.00000              0.00000              0.00000              1.00000
   ucn_00_031_013_002          ucn              0.00000              0.00000              0.00000              1.00000
   ucn_00_031_014_002          ucn              0.00000              0.00000              0.00000              1.00000
   ucn_00_031_015_002          ucn              0.00000              0.00000              0.00000              1.00000
   ucn_00_031_016_002          ucn              0.00000              0.00000              0.00000              1.00000
   ucn_00_031_017_002          ucn              0.00000              0.00000              0.00000              1.00000
   ucn_00_031_018_002          ucn              0.00000              0.00000              0.00000              1.00000
   ucn_00_031_019_002          ucn              0.00000              0.00000              0.00000              1.00000
   ucn_00_032_001_002          ucn              0.00000              0.00000              0.00000              1.00000
   ucn_00_032_002_002          ucn              0.00000              0.00000              0.00000              1.00000
   ucn_00_032_003_002          ucn              0.00000              0.00000              0.00000              1.00000
   ucn_00_032_004_002          ucn              0.00000              0.00000              0.00000              1.00000
   ucn_00_032_005_002          ucn              0.00000              0.00000              0.00000              1.00000
   ucn_00_032_006_002          ucn              0.00000              0.00000              0.00000              1.00000
   ucn_00_032_007_002          ucn              0.00000              0.00000              0.00000              1.00000
   ucn_00_032_008_002          ucn              0.00000              0.00000              0.00000              1.00000
   ucn_00_032_009_002          ucn              0.00000              0.00000              0.00000              1.00000
   ucn_00_032_010_002          ucn              0.00000              0.00000              0.00000              1.00000
   ucn_00_032_011_002          ucn              0.00000              0.00000              0.00000              1.00000
   ucn_00_032_012_002          ucn              0.00000              0.00000              0.00000              1.00000
   ucn_00_032_013_002          ucn              0.00000              0.00000              0.00000              1.00000
   ucn_00_032_014_002          ucn              0.00000              0.00000              0.00000              1.00000
   ucn_00_032_015_002          ucn              0.00000              0.00000              0.00000              1.00000
   ucn_00_032_016_002          ucn              0.00000              0.00000              0.00000              1.00000
   ucn_00_032_017_002          ucn              0.00000              0.00000              0.00000              1.00000
   ucn_00_032_018_002          ucn              0.00000              0.00000              0.00000              1.00000
   ucn_00_032_019_002          ucn              0.00000              0.00000              0.00000              1.00000
   ucn_00_033_002_002          ucn              0.00000              0.00000              0.00000              1.00000
   ucn_00_033_003_002          ucn              0.00000              0.00000              0.00000              1.00000
   ucn_00_033_004_002          ucn              0.00000              0.00000              0.00000              1.00000
   ucn_00_033_005_002          ucn              0.00000              0.00000              0.00000              1.00000
   ucn_00_033_006_002          ucn              0.00000              0.00000              0.00000              1.00000
   ucn_00_033_007_002          ucn              0.00000              0.00000              0.00000              1.00000
   ucn_00_033_008_002          ucn              0.00000              0.00000              0.00000              1.00000
   ucn_00_033_009_002          ucn              0.00000              0.00000              0.00000              1.00000
   ucn_00_033_010_002          ucn              0.00000              0.00000              0.00000              1.00000
   ucn_00_033_011_002          ucn              0.00000              0.00000              0.00000              1.00000
   ucn_00_033_012_002          ucn              0.00000              0.00000              0.00000              1.00000
   ucn_00_033_013_002          ucn              0.00000              0.00000              0.00000              1.00000
   ucn_00_033_014_002          ucn              0.00000              0.00000              0.00000              1.00000
   ucn_00_033_015_002          ucn              0.00000              0.00000              0.00000              1.00000
   ucn_00_033_016_002          ucn              0.00000              0.00000              0.00000              1.00000
   ucn_00_033_017_002          ucn              0.00000              0.00000              0.00000              1.00000
   ucn_00_033_018_002          ucn              0.00000              0.00000              0.00000              1.00000
   ucn_00_033_019_002          ucn              0.00000              0.00000              0.00000              1.00000
   ucn_00_034_003_002          ucn              0.00000              0.00000              0.00000              1.00000
   ucn_00_034_004_002          ucn              0.00000              0.00000              0.00000              1.00000
   ucn_00_034_005_002          ucn              0.00000              0.00000              0.00000              1.00000
   ucn_00_034_006_002          ucn              0.00000              0.00000              0.00000              1.00000
   ucn_00_034_007_002          ucn              0.00000              0.00000              0.00000              1.00000
   ucn_00_034_008_002          ucn              0.00000              0.00000              0.00000              1.00000
   ucn_00_034_009_002          ucn              0.00000              0.00000              0.00000              1.00000
   ucn_00_034_010_002          ucn              0.00000              0.00000              0.00000              1.00000
   ucn_00_034_011_002          ucn              0.00000              0.00000              0.00000              1.00000
   ucn_00_034_012_002          ucn              0.00000              0.00000              0.00000              1.00000
   ucn_00_034_013_002          ucn              0.00000              0.00000              0.00000              1.00000
   ucn_00_034_014_002          ucn              0.00000              0.00000              0.00000              1.00000
   ucn_00_034_015_002          ucn              0.00000              0.00000              0.00000              1.00000
   ucn_00_034_016_002          ucn              0.00000              0.00000              0.00000              1.00000
   ucn_00_034_017_002          ucn              0.00000              0.00000              0.00000              1.00000
   ucn_00_034_018_002          ucn              0.00000              0.00000              0.00000              1.00000
   ucn_00_034_019_002          ucn              0.00000              0.00000              0.00000              1.00000
   ucn_00_035_004_002          ucn              0.00000              0.00000              0.00000              1.00000
   ucn_00_035_005_002          ucn              0.00000              0.00000              0.00000              1.00000
   ucn_00_035_006_002          ucn              0.00000              0.00000              0.00000              1.00000
   ucn_00_035_007_002          ucn              0.00000              0.00000              0.00000              1.00000
   ucn_00_035_008_002          ucn              0.00000              0.00000              0.00000              1.00000
   ucn_00_035_009_002          ucn              0.00000              0.00000              0.00000              1.00000
   ucn_00_035_010_002          ucn              0.00000              0.00000              0.00000              1.00000
   ucn_00_035_011_002          ucn              0.00000              0.00000              0.00000              1.00000
   ucn_00_035_012_002          ucn              0.00000              0.00000              0.00000              1.00000
   ucn_00_035_013_002          ucn              0.00000              0.00000              0.00000              1.00000
   ucn_00_035_014_002          ucn              0.00000              0.00000              0.00000              1.00000
   ucn_00_035_015_002          ucn              0.00000              0.00000              0.00000              1.00000
   ucn_00_035_016_002          ucn              0.00000              0.00000              0.00000              1.00000
   ucn_00_035_017_002          ucn              0.00000              0.00000              0.00000              1.00000
   ucn_00_035_018_002          ucn              0.00000              0.00000              0.00000              1.00000
   ucn_00_036_004_002          ucn              0.00000              0.00000              0.00000              1.00000
   ucn_00_036_005_002          ucn              0.00000              0.00000              0.00000              1.00000
   ucn_00_036_006_002          ucn              0.00000              0.00000              0.00000              1.00000
   ucn_00_036_007_002          ucn              0.00000              0.00000              0.00000              1.00000
   ucn_00_036_008_002          ucn              0.00000              0.00000              0.00000              1.00000
   ucn_00_036_009_002          ucn              0.00000              0.00000              0.00000              1.00000
   ucn_00_036_010_002          ucn              0.00000              0.00000              0.00000              1.00000
   ucn_00_036_011_002          ucn              0.00000              0.00000              0.00000              1.00000
   ucn_00_036_012_002          ucn              0.00000              0.00000              0.00000              1.00000
   ucn_00_036_013_002          ucn              0.00000              0.00000              0.00000              1.00000
   ucn_00_036_014_002          ucn              0.00000              0.00000              0.00000              1.00000
   ucn_00_036_015_002          ucn              0.00000              0.00000              0.00000              1.00000
   ucn_00_036_016_002          ucn              0.00000              0.00000              0.00000              1.00000
   ucn_00_036_017_002          ucn              0.00000              0.00000              0.00000              1.00000
   ucn_00_036_018_002          ucn              0.00000              0.00000              0.00000              1.00000
   ucn_00_037_005_002          ucn              0.00000              0.00000              0.00000              1.00000
   ucn_00_037_006_002          ucn              0.00000              0.00000              0.00000              1.00000
   ucn_00_037_007_002          ucn              0.00000              0.00000              0.00000              1.00000
   ucn_00_037_008_002          ucn              0.00000              0.00000              0.00000              1.00000
   ucn_00_037_009_002          ucn              0.00000              0.00000              0.00000              1.00000
   ucn_00_037_010_002          ucn              0.00000              0.00000              0.00000              1.00000
   ucn_00_037_011_002          ucn              0.00000              0.00000              0.00000              1.00000
   ucn_00_037_012_002          ucn              0.00000              0.00000              0.00000              1.00000
   ucn_00_037_013_002          ucn              0.00000              0.00000              0.00000              1.00000
   ucn_00_037_014_002          ucn              0.00000              0.00000              0.00000              1.00000
   ucn_00_037_015_002          ucn              0.00000              0.00000              0.00000              1.00000
   ucn_00_037_016_002          ucn              0.00000              0.00000              0.00000              1.00000
   ucn_00_037_017_002          ucn              0.00000              0.00000              0.00000              1.00000
   ucn_00_038_005_002          ucn              0.00000              0.00000              0.00000              1.00000
   ucn_00_038_006_002          ucn              0.00000              0.00000              0.00000              1.00000
   ucn_00_038_007_002          ucn              0.00000              0.00000              0.00000              1.00000
   ucn_00_038_008_002          ucn              0.00000              0.00000              0.00000              1.00000
   ucn_00_038_009_002          ucn              0.00000              0.00000              0.00000              1.00000
   ucn_00_038_010_002          ucn              0.00000              0.00000              0.00000              1.00000
   ucn_00_038_011_002          ucn              0.00000              0.00000              0.00000              1.00000
   ucn_00_038_012_002          ucn              0.00000              0.00000              0.00000              1.00000
   ucn_00_038_013_002          ucn              0.00000              0.00000              0.00000              1.00000
   ucn_00_038_014_002          ucn              0.00000              0.00000              0.00000              1.00000
   ucn_00_038_015_002          ucn              0.00000              0.00000              0.00000              1.00000
   ucn_00_038_016_002          ucn              0.00000              0.00000              0.00000              1.00000
   ucn_00_039_005_002          ucn              0.00000              0.00000              0.00000              1.00000
   ucn_00_039_006_002          ucn              0.00000              0.00000              0.00000              1.00000
   ucn_00_039_007_002          ucn              0.00000              0.00000              0.00000              1.00000
   ucn_00_039_008_002          ucn              0.00000              0.00000              0.00000              1.00000
   ucn_00_039_009_002          ucn              0.00000              0.00000              0.00000              1.00000
   ucn_00_039_010_002          ucn              0.00000              0.00000              0.00000              1.00000
   ucn_00_039_011_002          ucn              0.00000              0.00000              0.00000              1.00000
   ucn_00_039_012_002          ucn              0.00000              0.00000              0.00000              1.00000
   ucn_00_039_013_002          ucn              0.00000              0.00000              0.00000              1.00000
   ucn_00_039_014_002          ucn              0.00000              0.00000              0.00000              1.00000

Final composite objective function 
  Final phi                                           Total : 0.250001
  Contribution to phi from observation group  "sw_gwtost1c" : 0.00000
  Contribution to phi from observation group  "vol_recharg" : 0.00000
  Contribution to phi from observation group    "sw_stde1c" : 0.00000
  Contribution to phi from observation group    "vol_wells" : 0.00000
  Contribution to phi from observation group  "vol_percent" : 0.00000
  Contribution to phi from observation group    "gw_coco1c" : 0.00000
  Contribution to phi from observation group    "sw_stac1c" : 0.00000
  Contribution to phi from observation group  "gw_mastfl1c" : 0.00000
  Contribution to phi from observation group      "sw_ru1c" : 0.00000
  Contribution to phi from observation group   "vol_in-out" : 0.00000
  Contribution to phi from observation group  "flx_recharg" : 0.00000
  Contribution to phi from observation group          "ucn" : 0.00000
  Contribution to phi from observation group  "flx_percent" : 0.00000
  Contribution to phi from observation group    "sw_stde1f" : 0.00000
  Contribution to phi from observation group      "sw_st1c" : 0.00000
  Contribution to phi from observation group    "vol_total" : 0.00000
  Contribution to phi from observation group  "flx_constan" : 0.00000
  Contribution to phi from observation group  "flx_storage" : 4.00000e-08
  Contribution to phi from observation group  "sw_gwtost1f" : 0.00000
  Contribution to phi from observation group  "sw_intost1f" : 0.00000
  Contribution to phi from observation group    "sw_coco1c" : 0.00000
  Contribution to phi from observation group  "vol_storage" : 0.00000
  Contribution to phi from observation group         "sfrc" : 0.00000
  Contribution to phi from observation group  "gw_mastso1c" : 0.00000
  Contribution to phi from observation group    "flx_wells" : 0.00000
  Contribution to phi from observation group   "flx_in-out" : 0.00000
  Contribution to phi from observation group  "vol_constan" : 0.250000
  Contribution to phi from observation group         "gwcn" : 0.00000
  Contribution to phi from observation group  "flx_stream_" : 2.92500e-07
  Contribution to phi from observation group      "sw_ru1f" : 0.00000
  Contribution to phi from observation group  "sw_sttogw1f" : 0.00000
  Contribution to phi from observation group    "gw_cohe1c" : 0.00000
  Contribution to phi from observation group  "sw_sttogw1c" : 0.00000
  Contribution to phi from observation group      "gw_re1c" : 0.00000
  Contribution to phi from observation group         "swgw" : 0.00000
  Contribution to phi from observation group  "vol_stream_" : 2.50000e-07
  Contribution to phi from observation group      "gw_we1c" : 0.00000
  Contribution to phi from observation group      "sw_pr1f" : 0.00000
  Contribution to phi from observation group      "sw_st1f" : 0.00000
  Contribution to phi from observation group      "sw_pr1c" : 0.00000
  Contribution to phi from observation group      "gw_st1c" : 0.00000
  Contribution to phi from observation group    "sw_coco1f" : 0.00000
  Contribution to phi from observation group    "flx_total" : 1.00000e-14
  Contribution to phi from observation group    "sw_stac1f" : 0.00000
  Contribution to phi from observation group          "hds" : 8.20173e-11
  Contribution to phi from observation group  "sw_intost1c" : 0.00000
  Contribution to phi from observation group  "gw_1sorre1c" : 0.00000


Number of forward model runs performed during optimiztion: 1
