             PEST++ Version 3.7.0

                 by Dave Welter
     Computational Water Resource Engineering



using control file: "freyberg.pst"

noptmax = 0, resetting max_run_fail = 1

PEST++ run mode:- 
   WTF

Case dimensions:- 
    Number of parameters = 2864
    Number of adjustable parameters = 2864
    Number of observations = 1573
    Number of prior estimates = 80

PEST Control Information
    relparmax = 10
    facparmax = 10
    facorig = 0.001
    phiredswh = 0.1
    noptmax = 0
    phiredstp = 0.01
    nphistp = 3
    nphinored = 3
    relparstp = 0.01
    nrelpar = 3

PEST++ Options
    n_iter_base = 1                   
    n_iter_super = 0                   
    max_n_super = 2864                
    super eigthres = 1e-06               
    svd pack = 2                   
    auto norm = -999                
    super relparmax = 0.1                 
    max super frz iter = 5                   
    mat inv = 1                   
    max run fail = 1                   
    max reg iter = 20                  
    use jacobian scaling a la PEST? =  yes
    lambdas = 
            0.1
              1
             10
            100
           1000
    lambda scaling factors = 
              1
    using FOSM-based uncertainty estimation for parameters
    parameter covariance file =                     
    derivative run failure forgive = 1              
    run overdue reschedule factor = 1.15                
    run overdue giveup factor = 100                 
    base parameter jacobian filename =                     
    prior parameter covariance upgrade scaling factor = -999      


Model command line(s):- 
    python forward_run.py

Model interface files:-
    template files:
      hk0.dat_gr.tpl
      rech0.dat_gr.tpl
      prst0.dat_gr.tpl
      rc110.dat_gr.tpl
      hk1.dat_cn.tpl
      rech1.dat_cn.tpl
      prst1.dat_cn.tpl
      rc111.dat_cn.tpl
      sfr_seg_pars.dat.tpl
      freyberg.mt3d.ssm.tpl
    model input files:
      arr_mlt\hk0.dat_gr
      arr_mlt\rech0.dat_gr
      arr_mlt\prst0.dat_gr
      arr_mlt\rc110.dat_gr
      arr_mlt\hk1.dat_cn
      arr_mlt\rech1.dat_cn
      arr_mlt\prst1.dat_cn
      arr_mlt\rc111.dat_cn
      sfr_seg_pars.dat
      freyberg.mt3d.ssm

    instruction files:
      flux.dat.ins
      freyberg.hds.dat.ins
      vol.dat.ins
      mtlist_gw.dat.ins
      mtlist_sw.dat.ins
      freyberg.mt3d.processed.ins
      MT3D001.ucn.dat.ins
    model output files:
      flux.dat
      freyberg.hds.dat
      vol.dat
      mtlist_gw.dat
      mtlist_sw.dat
      freyberg.mt3d.processed
      MT3D001.ucn.dat


Parameter group information
NAME            INCREMENT TYPE     DERIVATIVE INCREMENT    INCREMENT LOWER BOUND  FORCE CENTRAL     INCREMENT MULTIPLIER
grprst0               RELATIVE                     0.01                        0         SWITCH                        2
grrc110               RELATIVE                     0.01                        0         SWITCH                        2
grrech0               RELATIVE                     0.01                        0         SWITCH                        2
grhk0                 RELATIVE                     0.01                        0         SWITCH                        2
hcond1                RELATIVE                     0.01                        0         SWITCH                        2
kg                    ABSOLUTE                        1                        0         SWITCH                        2
cn                    RELATIVE                     0.01                        0         SWITCH                        2



Parameter information
NAME           TRANSFORMATION        CHANGE LIMIT  INITIAL VALUE    LOWER BOUND    UPPER BOUND          GROUP          SCALE         OFFSET  DERIVATIVE COMMAND
hk1_cn         log                     FACTOR              1           0.01            100             cn              1              0                   1
prst1_cn       log                     FACTOR              1            0.1             10             cn              1              0                   1
rc111_cn       log                     FACTOR              1            0.1             10             cn              1              0                   1
rech1_cn       log                     FACTOR              1            0.9            1.1             cn              1              0                   1
hk0000000      log                     FACTOR              1           0.01            100          grhk0              1              0                   1
hk0000001      log                     FACTOR              1           0.01            100          grhk0              1              0                   1
hk0000002      log                     FACTOR              1           0.01            100          grhk0              1              0                   1
hk0000003      log                     FACTOR              1           0.01            100          grhk0              1              0                   1
hk0000004      log                     FACTOR              1           0.01            100          grhk0              1              0                   1
hk0000005      log                     FACTOR              1           0.01            100          grhk0              1              0                   1
hk0000006      log                     FACTOR              1           0.01            100          grhk0              1              0                   1
hk0000007      log                     FACTOR              1           0.01            100          grhk0              1              0                   1
hk0000008      log                     FACTOR              1           0.01            100          grhk0              1              0                   1
hk0000009      log                     FACTOR              1           0.01            100          grhk0              1              0                   1
hk0000010      log                     FACTOR              1           0.01            100          grhk0              1              0                   1
hk0000011      log                     FACTOR              1           0.01            100          grhk0              1              0                   1
hk0000012      log                     FACTOR              1           0.01            100          grhk0              1              0                   1
hk0000013      log                     FACTOR              1           0.01            100          grhk0              1              0                   1
hk0000014      log                     FACTOR              1           0.01            100          grhk0              1              0                   1
hk0000015      log                     FACTOR              1           0.01            100          grhk0              1              0                   1
hk0000016      log                     FACTOR              1           0.01            100          grhk0              1              0                   1
hk0000017      log                     FACTOR              1           0.01            100          grhk0              1              0                   1
hk0000018      log                     FACTOR              1           0.01            100          grhk0              1              0                   1
hk0000019      log                     FACTOR              1           0.01            100          grhk0              1              0                   1
hk0001000      log                     FACTOR              1           0.01            100          grhk0              1              0                   1
hk0001001      log                     FACTOR              1           0.01            100          grhk0              1              0                   1
hk0001002      log                     FACTOR              1           0.01            100          grhk0              1              0                   1
hk0001003      log                     FACTOR              1           0.01            100          grhk0              1              0                   1
hk0001004      log                     FACTOR              1           0.01            100          grhk0              1              0                   1
hk0001005      log                     FACTOR              1           0.01            100          grhk0              1              0                   1
hk0001006      log                     FACTOR              1           0.01            100          grhk0              1              0                   1
hk0001007      log                     FACTOR              1           0.01            100          grhk0              1              0                   1
hk0001008      log                     FACTOR              1           0.01            100          grhk0              1              0                   1
hk0001009      log                     FACTOR              1           0.01            100          grhk0              1              0                   1
hk0001010      log                     FACTOR              1           0.01            100          grhk0              1              0                   1
hk0001011      log                     FACTOR              1           0.01            100          grhk0              1              0                   1
hk0001012      log                     FACTOR              1           0.01            100          grhk0              1              0                   1
hk0001013      log                     FACTOR              1           0.01            100          grhk0              1              0                   1
hk0001014      log                     FACTOR              1           0.01            100          grhk0              1              0                   1
hk0001015      log                     FACTOR              1           0.01            100          grhk0              1              0                   1
hk0001016      log                     FACTOR              1           0.01            100          grhk0              1              0                   1
hk0001017      log                     FACTOR              1           0.01            100          grhk0              1              0                   1
hk0001018      log                     FACTOR              1           0.01            100          grhk0              1              0                   1
hk0001019      log                     FACTOR              1           0.01            100          grhk0              1              0                   1
hk0002000      log                     FACTOR              1           0.01            100          grhk0              1              0                   1
hk0002001      log                     FACTOR              1           0.01            100          grhk0              1              0                   1
hk0002002      log                     FACTOR              1           0.01            100          grhk0              1              0                   1
hk0002003      log                     FACTOR              1           0.01            100          grhk0              1              0                   1
hk0002004      log                     FACTOR              1           0.01            100          grhk0              1              0                   1
hk0002005      log                     FACTOR              1           0.01            100          grhk0              1              0                   1
hk0002006      log                     FACTOR              1           0.01            100          grhk0              1              0                   1
hk0002007      log                     FACTOR              1           0.01            100          grhk0              1              0                   1
hk0002008      log                     FACTOR              1           0.01            100          grhk0              1              0                   1
hk0002009      log                     FACTOR              1           0.01            100          grhk0              1              0                   1
hk0002010      log                     FACTOR              1           0.01            100          grhk0              1              0                   1
hk0002011      log                     FACTOR              1           0.01            100          grhk0              1              0                   1
hk0002012      log                     FACTOR              1           0.01            100          grhk0              1              0                   1
hk0002013      log                     FACTOR              1           0.01            100          grhk0              1              0                   1
hk0002014      log                     FACTOR              1           0.01            100          grhk0              1              0                   1
hk0002015      log                     FACTOR              1           0.01            100          grhk0              1              0                   1
hk0002016      log                     FACTOR              1           0.01            100          grhk0              1              0                   1
hk0002017      log                     FACTOR              1           0.01            100          grhk0              1              0                   1
hk0002018      log                     FACTOR              1           0.01            100          grhk0              1              0                   1
hk0002019      log                     FACTOR              1           0.01            100          grhk0              1              0                   1
hk0003000      log                     FACTOR              1           0.01            100          grhk0              1              0                   1
hk0003001      log                     FACTOR              1           0.01            100          grhk0              1              0                   1
hk0003002      log                     FACTOR              1           0.01            100          grhk0              1              0                   1
hk0003003      log                     FACTOR              1           0.01            100          grhk0              1              0                   1
hk0003004      log                     FACTOR              1           0.01            100          grhk0              1              0                   1
hk0003005      log                     FACTOR              1           0.01            100          grhk0              1              0                   1
hk0003006      log                     FACTOR              1           0.01            100          grhk0              1              0                   1
hk0003007      log                     FACTOR              1           0.01            100          grhk0              1              0                   1
hk0003008      log                     FACTOR              1           0.01            100          grhk0              1              0                   1
hk0003009      log                     FACTOR              1           0.01            100          grhk0              1              0                   1
hk0003010      log                     FACTOR              1           0.01            100          grhk0              1              0                   1
hk0003011      log                     FACTOR              1           0.01            100          grhk0              1              0                   1
hk0003012      log                     FACTOR              1           0.01            100          grhk0              1              0                   1
hk0003013      log                     FACTOR              1           0.01            100          grhk0              1              0                   1
hk0003014      log                     FACTOR              1           0.01            100          grhk0              1              0                   1
hk0003015      log                     FACTOR              1           0.01            100          grhk0              1              0                   1
hk0003016      log                     FACTOR              1           0.01            100          grhk0              1              0                   1
hk0003017      log                     FACTOR              1           0.01            100          grhk0              1              0                   1
hk0003018      log                     FACTOR              1           0.01            100          grhk0              1              0                   1
hk0003019      log                     FACTOR              1           0.01            100          grhk0              1              0                   1
hk0004000      log                     FACTOR              1           0.01            100          grhk0              1              0                   1
hk0004001      log                     FACTOR              1           0.01            100          grhk0              1              0                   1
hk0004002      log                     FACTOR              1           0.01            100          grhk0              1              0                   1
hk0004003      log                     FACTOR              1           0.01            100          grhk0              1              0                   1
hk0004004      log                     FACTOR              1           0.01            100          grhk0              1              0                   1
hk0004005      log                     FACTOR              1           0.01            100          grhk0              1              0                   1
hk0004006      log                     FACTOR              1           0.01            100          grhk0              1              0                   1
hk0004007      log                     FACTOR              1           0.01            100          grhk0              1              0                   1
hk0004008      log                     FACTOR              1           0.01            100          grhk0              1              0                   1
hk0004009      log                     FACTOR              1           0.01            100          grhk0              1              0                   1
hk0004010      log                     FACTOR              1           0.01            100          grhk0              1              0                   1
hk0004011      log                     FACTOR              1           0.01            100          grhk0              1              0                   1
hk0004012      log                     FACTOR              1           0.01            100          grhk0              1              0                   1
hk0004013      log                     FACTOR              1           0.01            100          grhk0              1              0                   1
hk0004014      log                     FACTOR              1           0.01            100          grhk0              1              0                   1
hk0004015      log                     FACTOR              1           0.01            100          grhk0              1              0                   1
hk0004016      log                     FACTOR              1           0.01            100          grhk0              1              0                   1
hk0004017      log                     FACTOR              1           0.01            100          grhk0              1              0                   1
hk0004018      log                     FACTOR              1           0.01            100          grhk0              1              0                   1
hk0004019      log                     FACTOR              1           0.01            100          grhk0              1              0                   1
hk0005000      log                     FACTOR              1           0.01            100          grhk0              1              0                   1
hk0005001      log                     FACTOR              1           0.01            100          grhk0              1              0                   1
hk0005002      log                     FACTOR              1           0.01            100          grhk0              1              0                   1
hk0005003      log                     FACTOR              1           0.01            100          grhk0              1              0                   1
hk0005004      log                     FACTOR              1           0.01            100          grhk0              1              0                   1
hk0005005      log                     FACTOR              1           0.01            100          grhk0              1              0                   1
hk0005006      log                     FACTOR              1           0.01            100          grhk0              1              0                   1
hk0005007      log                     FACTOR              1           0.01            100          grhk0              1              0                   1
hk0005008      log                     FACTOR              1           0.01            100          grhk0              1              0                   1
hk0005009      log                     FACTOR              1           0.01            100          grhk0              1              0                   1
hk0005010      log                     FACTOR              1           0.01            100          grhk0              1              0                   1
hk0005011      log                     FACTOR              1           0.01            100          grhk0              1              0                   1
hk0005012      log                     FACTOR              1           0.01            100          grhk0              1              0                   1
hk0005013      log                     FACTOR              1           0.01            100          grhk0              1              0                   1
hk0005014      log                     FACTOR              1           0.01            100          grhk0              1              0                   1
hk0005015      log                     FACTOR              1           0.01            100          grhk0              1              0                   1
hk0005016      log                     FACTOR              1           0.01            100          grhk0              1              0                   1
hk0005017      log                     FACTOR              1           0.01            100          grhk0              1              0                   1
hk0005018      log                     FACTOR              1           0.01            100          grhk0              1              0                   1
hk0005019      log                     FACTOR              1           0.01            100          grhk0              1              0                   1
hk0006000      log                     FACTOR              1           0.01            100          grhk0              1              0                   1
hk0006001      log                     FACTOR              1           0.01            100          grhk0              1              0                   1
hk0006002      log                     FACTOR              1           0.01            100          grhk0              1              0                   1
hk0006003      log                     FACTOR              1           0.01            100          grhk0              1              0                   1
hk0006004      log                     FACTOR              1           0.01            100          grhk0              1              0                   1
hk0006005      log                     FACTOR              1           0.01            100          grhk0              1              0                   1
hk0006006      log                     FACTOR              1           0.01            100          grhk0              1              0                   1
hk0006007      log                     FACTOR              1           0.01            100          grhk0              1              0                   1
hk0006008      log                     FACTOR              1           0.01            100          grhk0              1              0                   1
hk0006009      log                     FACTOR              1           0.01            100          grhk0              1              0                   1
hk0006010      log                     FACTOR              1           0.01            100          grhk0              1              0                   1
hk0006011      log                     FACTOR              1           0.01            100          grhk0              1              0                   1
hk0006012      log                     FACTOR              1           0.01            100          grhk0              1              0                   1
hk0006013      log                     FACTOR              1           0.01            100          grhk0              1              0                   1
hk0006014      log                     FACTOR              1           0.01            100          grhk0              1              0                   1
hk0006015      log                     FACTOR              1           0.01            100          grhk0              1              0                   1
hk0006016      log                     FACTOR              1           0.01            100          grhk0              1              0                   1
hk0006017      log                     FACTOR              1           0.01            100          grhk0              1              0                   1
hk0006018      log                     FACTOR              1           0.01            100          grhk0              1              0                   1
hk0006019      log                     FACTOR              1           0.01            100          grhk0              1              0                   1
hk0007000      log                     FACTOR              1           0.01            100          grhk0              1              0                   1
hk0007001      log                     FACTOR              1           0.01            100          grhk0              1              0                   1
hk0007002      log                     FACTOR              1           0.01            100          grhk0              1              0                   1
hk0007003      log                     FACTOR              1           0.01            100          grhk0              1              0                   1
hk0007004      log                     FACTOR              1           0.01            100          grhk0              1              0                   1
hk0007005      log                     FACTOR              1           0.01            100          grhk0              1              0                   1
hk0007006      log                     FACTOR              1           0.01            100          grhk0              1              0                   1
hk0007007      log                     FACTOR              1           0.01            100          grhk0              1              0                   1
hk0007008      log                     FACTOR              1           0.01            100          grhk0              1              0                   1
hk0007009      log                     FACTOR              1           0.01            100          grhk0              1              0                   1
hk0007010      log                     FACTOR              1           0.01            100          grhk0              1              0                   1
hk0007011      log                     FACTOR              1           0.01            100          grhk0              1              0                   1
hk0007012      log                     FACTOR              1           0.01            100          grhk0              1              0                   1
hk0007013      log                     FACTOR              1           0.01            100          grhk0              1              0                   1
hk0007014      log                     FACTOR              1           0.01            100          grhk0              1              0                   1
hk0007015      log                     FACTOR              1           0.01            100          grhk0              1              0                   1
hk0007016      log                     FACTOR              1           0.01            100          grhk0              1              0                   1
hk0007017      log                     FACTOR              1           0.01            100          grhk0              1              0                   1
hk0007018      log                     FACTOR              1           0.01            100          grhk0              1              0                   1
hk0007019      log                     FACTOR              1           0.01            100          grhk0              1              0                   1
hk0008000      log                     FACTOR              1           0.01            100          grhk0              1              0                   1
hk0008001      log                     FACTOR              1           0.01            100          grhk0              1              0                   1
hk0008002      log                     FACTOR              1           0.01            100          grhk0              1              0                   1
hk0008003      log                     FACTOR              1           0.01            100          grhk0              1              0                   1
hk0008007      log                     FACTOR              1           0.01            100          grhk0              1              0                   1
hk0008008      log                     FACTOR              1           0.01            100          grhk0              1              0                   1
hk0008009      log                     FACTOR              1           0.01            100          grhk0              1              0                   1
hk0008010      log                     FACTOR              1           0.01            100          grhk0              1              0                   1
hk0008011      log                     FACTOR              1           0.01            100          grhk0              1              0                   1
hk0008012      log                     FACTOR              1           0.01            100          grhk0              1              0                   1
hk0008013      log                     FACTOR              1           0.01            100          grhk0              1              0                   1
hk0008014      log                     FACTOR              1           0.01            100          grhk0              1              0                   1
hk0008015      log                     FACTOR              1           0.01            100          grhk0              1              0                   1
hk0008016      log                     FACTOR              1           0.01            100          grhk0              1              0                   1
hk0008017      log                     FACTOR              1           0.01            100          grhk0              1              0                   1
hk0008018      log                     FACTOR              1           0.01            100          grhk0              1              0                   1
hk0008019      log                     FACTOR              1           0.01            100          grhk0              1              0                   1
hk0009000      log                     FACTOR              1           0.01            100          grhk0              1              0                   1
hk0009001      log                     FACTOR              1           0.01            100          grhk0              1              0                   1
hk0009002      log                     FACTOR              1           0.01            100          grhk0              1              0                   1
hk0009003      log                     FACTOR              1           0.01            100          grhk0              1              0                   1
hk0009008      log                     FACTOR              1           0.01            100          grhk0              1              0                   1
hk0009009      log                     FACTOR              1           0.01            100          grhk0              1              0                   1
hk0009010      log                     FACTOR              1           0.01            100          grhk0              1              0                   1
hk0009011      log                     FACTOR              1           0.01            100          grhk0              1              0                   1
hk0009012      log                     FACTOR              1           0.01            100          grhk0              1              0                   1
hk0009013      log                     FACTOR              1           0.01            100          grhk0              1              0                   1
hk0009014      log                     FACTOR              1           0.01            100          grhk0              1              0                   1
hk0009015      log                     FACTOR              1           0.01            100          grhk0              1              0                   1
hk0009016      log                     FACTOR              1           0.01            100          grhk0              1              0                   1
hk0009017      log                     FACTOR              1           0.01            100          grhk0              1              0                   1
hk0009018      log                     FACTOR              1           0.01            100          grhk0              1              0                   1
hk0009019      log                     FACTOR              1           0.01            100          grhk0              1              0                   1
hk0010000      log                     FACTOR              1           0.01            100          grhk0              1              0                   1
hk0010001      log                     FACTOR              1           0.01            100          grhk0              1              0                   1
hk0010002      log                     FACTOR              1           0.01            100          grhk0              1              0                   1
hk0010003      log                     FACTOR              1           0.01            100          grhk0              1              0                   1
hk0010008      log                     FACTOR              1           0.01            100          grhk0              1              0                   1
hk0010009      log                     FACTOR              1           0.01            100          grhk0              1              0                   1
hk0010010      log                     FACTOR              1           0.01            100          grhk0              1              0                   1
hk0010011      log                     FACTOR              1           0.01            100          grhk0              1              0                   1
hk0010012      log                     FACTOR              1           0.01            100          grhk0              1              0                   1
hk0010013      log                     FACTOR              1           0.01            100          grhk0              1              0                   1
hk0010014      log                     FACTOR              1           0.01            100          grhk0              1              0                   1
hk0010015      log                     FACTOR              1           0.01            100          grhk0              1              0                   1
hk0010016      log                     FACTOR              1           0.01            100          grhk0              1              0                   1
hk0010017      log                     FACTOR              1           0.01            100          grhk0              1              0                   1
hk0010018      log                     FACTOR              1           0.01            100          grhk0              1              0                   1
hk0010019      log                     FACTOR              1           0.01            100          grhk0              1              0                   1
hk0011000      log                     FACTOR              1           0.01            100          grhk0              1              0                   1
hk0011001      log                     FACTOR              1           0.01            100          grhk0              1              0                   1
hk0011002      log                     FACTOR              1           0.01            100          grhk0              1              0                   1
hk0011003      log                     FACTOR              1           0.01            100          grhk0              1              0                   1
hk0011008      log                     FACTOR              1           0.01            100          grhk0              1              0                   1
hk0011009      log                     FACTOR              1           0.01            100          grhk0              1              0                   1
hk0011010      log                     FACTOR              1           0.01            100          grhk0              1              0                   1
hk0011011      log                     FACTOR              1           0.01            100          grhk0              1              0                   1
hk0011012      log                     FACTOR              1           0.01            100          grhk0              1              0                   1
hk0011013      log                     FACTOR              1           0.01            100          grhk0              1              0                   1
hk0011014      log                     FACTOR              1           0.01            100          grhk0              1              0                   1
hk0011015      log                     FACTOR              1           0.01            100          grhk0              1              0                   1
hk0011016      log                     FACTOR              1           0.01            100          grhk0              1              0                   1
hk0011017      log                     FACTOR              1           0.01            100          grhk0              1              0                   1
hk0011018      log                     FACTOR              1           0.01            100          grhk0              1              0                   1
hk0011019      log                     FACTOR              1           0.01            100          grhk0              1              0                   1
hk0012000      log                     FACTOR              1           0.01            100          grhk0              1              0                   1
hk0012001      log                     FACTOR              1           0.01            100          grhk0              1              0                   1
hk0012002      log                     FACTOR              1           0.01            100          grhk0              1              0                   1
hk0012003      log                     FACTOR              1           0.01            100          grhk0              1              0                   1
hk0012008      log                     FACTOR              1           0.01            100          grhk0              1              0                   1
hk0012009      log                     FACTOR              1           0.01            100          grhk0              1              0                   1
hk0012010      log                     FACTOR              1           0.01            100          grhk0              1              0                   1
hk0012011      log                     FACTOR              1           0.01            100          grhk0              1              0                   1
hk0012012      log                     FACTOR              1           0.01            100          grhk0              1              0                   1
hk0012013      log                     FACTOR              1           0.01            100          grhk0              1              0                   1
hk0012014      log                     FACTOR              1           0.01            100          grhk0              1              0                   1
hk0012015      log                     FACTOR              1           0.01            100          grhk0              1              0                   1
hk0012016      log                     FACTOR              1           0.01            100          grhk0              1              0                   1
hk0012017      log                     FACTOR              1           0.01            100          grhk0              1              0                   1
hk0012018      log                     FACTOR              1           0.01            100          grhk0              1              0                   1
hk0012019      log                     FACTOR              1           0.01            100          grhk0              1              0                   1
hk0013000      log                     FACTOR              1           0.01            100          grhk0              1              0                   1
hk0013001      log                     FACTOR              1           0.01            100          grhk0              1              0                   1
hk0013002      log                     FACTOR              1           0.01            100          grhk0              1              0                   1
hk0013003      log                     FACTOR              1           0.01            100          grhk0              1              0                   1
hk0013008      log                     FACTOR              1           0.01            100          grhk0              1              0                   1
hk0013009      log                     FACTOR              1           0.01            100          grhk0              1              0                   1
hk0013010      log                     FACTOR              1           0.01            100          grhk0              1              0                   1
hk0013011      log                     FACTOR              1           0.01            100          grhk0              1              0                   1
hk0013012      log                     FACTOR              1           0.01            100          grhk0              1              0                   1
hk0013013      log                     FACTOR              1           0.01            100          grhk0              1              0                   1
hk0013014      log                     FACTOR              1           0.01            100          grhk0              1              0                   1
hk0013015      log                     FACTOR              1           0.01            100          grhk0              1              0                   1
hk0013016      log                     FACTOR              1           0.01            100          grhk0              1              0                   1
hk0013017      log                     FACTOR              1           0.01            100          grhk0              1              0                   1
hk0013018      log                     FACTOR              1           0.01            100          grhk0              1              0                   1
hk0013019      log                     FACTOR              1           0.01            100          grhk0              1              0                   1
hk0014000      log                     FACTOR              1           0.01            100          grhk0              1              0                   1
hk0014001      log                     FACTOR              1           0.01            100          grhk0              1              0                   1
hk0014002      log                     FACTOR              1           0.01            100          grhk0              1              0                   1
hk0014003      log                     FACTOR              1           0.01            100          grhk0              1              0                   1
hk0014008      log                     FACTOR              1           0.01            100          grhk0              1              0                   1
hk0014009      log                     FACTOR              1           0.01            100          grhk0              1              0                   1
hk0014010      log                     FACTOR              1           0.01            100          grhk0              1              0                   1
hk0014011      log                     FACTOR              1           0.01            100          grhk0              1              0                   1
hk0014012      log                     FACTOR              1           0.01            100          grhk0              1              0                   1
hk0014013      log                     FACTOR              1           0.01            100          grhk0              1              0                   1
hk0014014      log                     FACTOR              1           0.01            100          grhk0              1              0                   1
hk0014015      log                     FACTOR              1           0.01            100          grhk0              1              0                   1
hk0014016      log                     FACTOR              1           0.01            100          grhk0              1              0                   1
hk0014017      log                     FACTOR              1           0.01            100          grhk0              1              0                   1
hk0014018      log                     FACTOR              1           0.01            100          grhk0              1              0                   1
hk0014019      log                     FACTOR              1           0.01            100          grhk0              1              0                   1
hk0015000      log                     FACTOR              1           0.01            100          grhk0              1              0                   1
hk0015001      log                     FACTOR              1           0.01            100          grhk0              1              0                   1
hk0015002      log                     FACTOR              1           0.01            100          grhk0              1              0                   1
hk0015003      log                     FACTOR              1           0.01            100          grhk0              1              0                   1
hk0015008      log                     FACTOR              1           0.01            100          grhk0              1              0                   1
hk0015009      log                     FACTOR              1           0.01            100          grhk0              1              0                   1
hk0015010      log                     FACTOR              1           0.01            100          grhk0              1              0                   1
hk0015011      log                     FACTOR              1           0.01            100          grhk0              1              0                   1
hk0015012      log                     FACTOR              1           0.01            100          grhk0              1              0                   1
hk0015013      log                     FACTOR              1           0.01            100          grhk0              1              0                   1
hk0015014      log                     FACTOR              1           0.01            100          grhk0              1              0                   1
hk0015015      log                     FACTOR              1           0.01            100          grhk0              1              0                   1
hk0015016      log                     FACTOR              1           0.01            100          grhk0              1              0                   1
hk0015017      log                     FACTOR              1           0.01            100          grhk0              1              0                   1
hk0015018      log                     FACTOR              1           0.01            100          grhk0              1              0                   1
hk0015019      log                     FACTOR              1           0.01            100          grhk0              1              0                   1
hk0016000      log                     FACTOR              1           0.01            100          grhk0              1              0                   1
hk0016001      log                     FACTOR              1           0.01            100          grhk0              1              0                   1
hk0016002      log                     FACTOR              1           0.01            100          grhk0              1              0                   1
hk0016003      log                     FACTOR              1           0.01            100          grhk0              1              0                   1
hk0016008      log                     FACTOR              1           0.01            100          grhk0              1              0                   1
hk0016009      log                     FACTOR              1           0.01            100          grhk0              1              0                   1
hk0016010      log                     FACTOR              1           0.01            100          grhk0              1              0                   1
hk0016011      log                     FACTOR              1           0.01            100          grhk0              1              0                   1
hk0016012      log                     FACTOR              1           0.01            100          grhk0              1              0                   1
hk0016013      log                     FACTOR              1           0.01            100          grhk0              1              0                   1
hk0016014      log                     FACTOR              1           0.01            100          grhk0              1              0                   1
hk0016015      log                     FACTOR              1           0.01            100          grhk0              1              0                   1
hk0016016      log                     FACTOR              1           0.01            100          grhk0              1              0                   1
hk0016017      log                     FACTOR              1           0.01            100          grhk0              1              0                   1
hk0016018      log                     FACTOR              1           0.01            100          grhk0              1              0                   1
hk0016019      log                     FACTOR              1           0.01            100          grhk0              1              0                   1
hk0017000      log                     FACTOR              1           0.01            100          grhk0              1              0                   1
hk0017001      log                     FACTOR              1           0.01            100          grhk0              1              0                   1
hk0017002      log                     FACTOR              1           0.01            100          grhk0              1              0                   1
hk0017003      log                     FACTOR              1           0.01            100          grhk0              1              0                   1
hk0017008      log                     FACTOR              1           0.01            100          grhk0              1              0                   1
hk0017009      log                     FACTOR              1           0.01            100          grhk0              1              0                   1
hk0017010      log                     FACTOR              1           0.01            100          grhk0              1              0                   1
hk0017011      log                     FACTOR              1           0.01            100          grhk0              1              0                   1
hk0017012      log                     FACTOR              1           0.01            100          grhk0              1              0                   1
hk0017013      log                     FACTOR              1           0.01            100          grhk0              1              0                   1
hk0017014      log                     FACTOR              1           0.01            100          grhk0              1              0                   1
hk0017015      log                     FACTOR              1           0.01            100          grhk0              1              0                   1
hk0017016      log                     FACTOR              1           0.01            100          grhk0              1              0                   1
hk0017017      log                     FACTOR              1           0.01            100          grhk0              1              0                   1
hk0017018      log                     FACTOR              1           0.01            100          grhk0              1              0                   1
hk0017019      log                     FACTOR              1           0.01            100          grhk0              1              0                   1
hk0018000      log                     FACTOR              1           0.01            100          grhk0              1              0                   1
hk0018001      log                     FACTOR              1           0.01            100          grhk0              1              0                   1
hk0018002      log                     FACTOR              1           0.01            100          grhk0              1              0                   1
hk0018003      log                     FACTOR              1           0.01            100          grhk0              1              0                   1
hk0018008      log                     FACTOR              1           0.01            100          grhk0              1              0                   1
hk0018009      log                     FACTOR              1           0.01            100          grhk0              1              0                   1
hk0018010      log                     FACTOR              1           0.01            100          grhk0              1              0                   1
hk0018011      log                     FACTOR              1           0.01            100          grhk0              1              0                   1
hk0018012      log                     FACTOR              1           0.01            100          grhk0              1              0                   1
hk0018013      log                     FACTOR              1           0.01            100          grhk0              1              0                   1
hk0018014      log                     FACTOR              1           0.01            100          grhk0              1              0                   1
hk0018015      log                     FACTOR              1           0.01            100          grhk0              1              0                   1
hk0018016      log                     FACTOR              1           0.01            100          grhk0              1              0                   1
hk0018017      log                     FACTOR              1           0.01            100          grhk0              1              0                   1
hk0018018      log                     FACTOR              1           0.01            100          grhk0              1              0                   1
hk0018019      log                     FACTOR              1           0.01            100          grhk0              1              0                   1
hk0019000      log                     FACTOR              1           0.01            100          grhk0              1              0                   1
hk0019001      log                     FACTOR              1           0.01            100          grhk0              1              0                   1
hk0019002      log                     FACTOR              1           0.01            100          grhk0              1              0                   1
hk0019003      log                     FACTOR              1           0.01            100          grhk0              1              0                   1
hk0019008      log                     FACTOR              1           0.01            100          grhk0              1              0                   1
hk0019009      log                     FACTOR              1           0.01            100          grhk0              1              0                   1
hk0019010      log                     FACTOR              1           0.01            100          grhk0              1              0                   1
hk0019011      log                     FACTOR              1           0.01            100          grhk0              1              0                   1
hk0019012      log                     FACTOR              1           0.01            100          grhk0              1              0                   1
hk0019013      log                     FACTOR              1           0.01            100          grhk0              1              0                   1
hk0019014      log                     FACTOR              1           0.01            100          grhk0              1              0                   1
hk0019015      log                     FACTOR              1           0.01            100          grhk0              1              0                   1
hk0019016      log                     FACTOR              1           0.01            100          grhk0              1              0                   1
hk0019017      log                     FACTOR              1           0.01            100          grhk0              1              0                   1
hk0019018      log                     FACTOR              1           0.01            100          grhk0              1              0                   1
hk0019019      log                     FACTOR              1           0.01            100          grhk0              1              0                   1
hk0020000      log                     FACTOR              1           0.01            100          grhk0              1              0                   1
hk0020001      log                     FACTOR              1           0.01            100          grhk0              1              0                   1
hk0020002      log                     FACTOR              1           0.01            100          grhk0              1              0                   1
hk0020003      log                     FACTOR              1           0.01            100          grhk0              1              0                   1
hk0020008      log                     FACTOR              1           0.01            100          grhk0              1              0                   1
hk0020009      log                     FACTOR              1           0.01            100          grhk0              1              0                   1
hk0020010      log                     FACTOR              1           0.01            100          grhk0              1              0                   1
hk0020011      log                     FACTOR              1           0.01            100          grhk0              1              0                   1
hk0020012      log                     FACTOR              1           0.01            100          grhk0              1              0                   1
hk0020013      log                     FACTOR              1           0.01            100          grhk0              1              0                   1
hk0020014      log                     FACTOR              1           0.01            100          grhk0              1              0                   1
hk0020015      log                     FACTOR              1           0.01            100          grhk0              1              0                   1
hk0020016      log                     FACTOR              1           0.01            100          grhk0              1              0                   1
hk0020017      log                     FACTOR              1           0.01            100          grhk0              1              0                   1
hk0020018      log                     FACTOR              1           0.01            100          grhk0              1              0                   1
hk0020019      log                     FACTOR              1           0.01            100          grhk0              1              0                   1
hk0021000      log                     FACTOR              1           0.01            100          grhk0              1              0                   1
hk0021001      log                     FACTOR              1           0.01            100          grhk0              1              0                   1
hk0021002      log                     FACTOR              1           0.01            100          grhk0              1              0                   1
hk0021003      log                     FACTOR              1           0.01            100          grhk0              1              0                   1
hk0021006      log                     FACTOR              1           0.01            100          grhk0              1              0                   1
hk0021007      log                     FACTOR              1           0.01            100          grhk0              1              0                   1
hk0021008      log                     FACTOR              1           0.01            100          grhk0              1              0                   1
hk0021009      log                     FACTOR              1           0.01            100          grhk0              1              0                   1
hk0021010      log                     FACTOR              1           0.01            100          grhk0              1              0                   1
hk0021011      log                     FACTOR              1           0.01            100          grhk0              1              0                   1
hk0021012      log                     FACTOR              1           0.01            100          grhk0              1              0                   1
hk0021013      log                     FACTOR              1           0.01            100          grhk0              1              0                   1
hk0021014      log                     FACTOR              1           0.01            100          grhk0              1              0                   1
hk0021015      log                     FACTOR              1           0.01            100          grhk0              1              0                   1
hk0021016      log                     FACTOR              1           0.01            100          grhk0              1              0                   1
hk0021017      log                     FACTOR              1           0.01            100          grhk0              1              0                   1
hk0021018      log                     FACTOR              1           0.01            100          grhk0              1              0                   1
hk0021019      log                     FACTOR              1           0.01            100          grhk0              1              0                   1
hk0022000      log                     FACTOR              1           0.01            100          grhk0              1              0                   1
hk0022001      log                     FACTOR              1           0.01            100          grhk0              1              0                   1
hk0022002      log                     FACTOR              1           0.01            100          grhk0              1              0                   1
hk0022003      log                     FACTOR              1           0.01            100          grhk0              1              0                   1
hk0022004      log                     FACTOR              1           0.01            100          grhk0              1              0                   1
hk0022006      log                     FACTOR              1           0.01            100          grhk0              1              0                   1
hk0022007      log                     FACTOR              1           0.01            100          grhk0              1              0                   1
hk0022008      log                     FACTOR              1           0.01            100          grhk0              1              0                   1
hk0022009      log                     FACTOR              1           0.01            100          grhk0              1              0                   1
hk0022010      log                     FACTOR              1           0.01            100          grhk0              1              0                   1
hk0022011      log                     FACTOR              1           0.01            100          grhk0              1              0                   1
hk0022012      log                     FACTOR              1           0.01            100          grhk0              1              0                   1
hk0022013      log                     FACTOR              1           0.01            100          grhk0              1              0                   1
hk0022014      log                     FACTOR              1           0.01            100          grhk0              1              0                   1
hk0022015      log                     FACTOR              1           0.01            100          grhk0              1              0                   1
hk0022016      log                     FACTOR              1           0.01            100          grhk0              1              0                   1
hk0022017      log                     FACTOR              1           0.01            100          grhk0              1              0                   1
hk0022018      log                     FACTOR              1           0.01            100          grhk0              1              0                   1
hk0022019      log                     FACTOR              1           0.01            100          grhk0              1              0                   1
hk0023000      log                     FACTOR              1           0.01            100          grhk0              1              0                   1
hk0023001      log                     FACTOR              1           0.01            100          grhk0              1              0                   1
hk0023002      log                     FACTOR              1           0.01            100          grhk0              1              0                   1
hk0023003      log                     FACTOR              1           0.01            100          grhk0              1              0                   1
hk0023004      log                     FACTOR              1           0.01            100          grhk0              1              0                   1
hk0023005      log                     FACTOR              1           0.01            100          grhk0              1              0                   1
hk0023006      log                     FACTOR              1           0.01            100          grhk0              1              0                   1
hk0023007      log                     FACTOR              1           0.01            100          grhk0              1              0                   1
hk0023008      log                     FACTOR              1           0.01            100          grhk0              1              0                   1
hk0023009      log                     FACTOR              1           0.01            100          grhk0              1              0                   1
hk0023010      log                     FACTOR              1           0.01            100          grhk0              1              0                   1
hk0023011      log                     FACTOR              1           0.01            100          grhk0              1              0                   1
hk0023012      log                     FACTOR              1           0.01            100          grhk0              1              0                   1
hk0023013      log                     FACTOR              1           0.01            100          grhk0              1              0                   1
hk0023014      log                     FACTOR              1           0.01            100          grhk0              1              0                   1
hk0023015      log                     FACTOR              1           0.01            100          grhk0              1              0                   1
hk0023016      log                     FACTOR              1           0.01            100          grhk0              1              0                   1
hk0023017      log                     FACTOR              1           0.01            100          grhk0              1              0                   1
hk0023018      log                     FACTOR              1           0.01            100          grhk0              1              0                   1
hk0023019      log                     FACTOR              1           0.01            100          grhk0              1              0                   1
hk0024000      log                     FACTOR              1           0.01            100          grhk0              1              0                   1
hk0024001      log                     FACTOR              1           0.01            100          grhk0              1              0                   1
hk0024002      log                     FACTOR              1           0.01            100          grhk0              1              0                   1
hk0024003      log                     FACTOR              1           0.01            100          grhk0              1              0                   1
hk0024004      log                     FACTOR              1           0.01            100          grhk0              1              0                   1
hk0024005      log                     FACTOR              1           0.01            100          grhk0              1              0                   1
hk0024006      log                     FACTOR              1           0.01            100          grhk0              1              0                   1
hk0024007      log                     FACTOR              1           0.01            100          grhk0              1              0                   1
hk0024008      log                     FACTOR              1           0.01            100          grhk0              1              0                   1
hk0024009      log                     FACTOR              1           0.01            100          grhk0              1              0                   1
hk0024010      log                     FACTOR              1           0.01            100          grhk0              1              0                   1
hk0024011      log                     FACTOR              1           0.01            100          grhk0              1              0                   1
hk0024012      log                     FACTOR              1           0.01            100          grhk0              1              0                   1
hk0024013      log                     FACTOR              1           0.01            100          grhk0              1              0                   1
hk0024014      log                     FACTOR              1           0.01            100          grhk0              1              0                   1
hk0024015      log                     FACTOR              1           0.01            100          grhk0              1              0                   1
hk0024016      log                     FACTOR              1           0.01            100          grhk0              1              0                   1
hk0024017      log                     FACTOR              1           0.01            100          grhk0              1              0                   1
hk0024018      log                     FACTOR              1           0.01            100          grhk0              1              0                   1
hk0024019      log                     FACTOR              1           0.01            100          grhk0              1              0                   1
hk0025000      log                     FACTOR              1           0.01            100          grhk0              1              0                   1
hk0025001      log                     FACTOR              1           0.01            100          grhk0              1              0                   1
hk0025002      log                     FACTOR              1           0.01            100          grhk0              1              0                   1
hk0025003      log                     FACTOR              1           0.01            100          grhk0              1              0                   1
hk0025004      log                     FACTOR              1           0.01            100          grhk0              1              0                   1
hk0025005      log                     FACTOR              1           0.01            100          grhk0              1              0                   1
hk0025006      log                     FACTOR              1           0.01            100          grhk0              1              0                   1
hk0025007      log                     FACTOR              1           0.01            100          grhk0              1              0                   1
hk0025008      log                     FACTOR              1           0.01            100          grhk0              1              0                   1
hk0025009      log                     FACTOR              1           0.01            100          grhk0              1              0                   1
hk0025010      log                     FACTOR              1           0.01            100          grhk0              1              0                   1
hk0025011      log                     FACTOR              1           0.01            100          grhk0              1              0                   1
hk0025012      log                     FACTOR              1           0.01            100          grhk0              1              0                   1
hk0025013      log                     FACTOR              1           0.01            100          grhk0              1              0                   1
hk0025014      log                     FACTOR              1           0.01            100          grhk0              1              0                   1
hk0025015      log                     FACTOR              1           0.01            100          grhk0              1              0                   1
hk0025016      log                     FACTOR              1           0.01            100          grhk0              1              0                   1
hk0025017      log                     FACTOR              1           0.01            100          grhk0              1              0                   1
hk0025018      log                     FACTOR              1           0.01            100          grhk0              1              0                   1
hk0025019      log                     FACTOR              1           0.01            100          grhk0              1              0                   1
hk0026000      log                     FACTOR              1           0.01            100          grhk0              1              0                   1
hk0026001      log                     FACTOR              1           0.01            100          grhk0              1              0                   1
hk0026002      log                     FACTOR              1           0.01            100          grhk0              1              0                   1
hk0026003      log                     FACTOR              1           0.01            100          grhk0              1              0                   1
hk0026004      log                     FACTOR              1           0.01            100          grhk0              1              0                   1
hk0026005      log                     FACTOR              1           0.01            100          grhk0              1              0                   1
hk0026006      log                     FACTOR              1           0.01            100          grhk0              1              0                   1
hk0026007      log                     FACTOR              1           0.01            100          grhk0              1              0                   1
hk0026008      log                     FACTOR              1           0.01            100          grhk0              1              0                   1
hk0026009      log                     FACTOR              1           0.01            100          grhk0              1              0                   1
hk0026010      log                     FACTOR              1           0.01            100          grhk0              1              0                   1
hk0026011      log                     FACTOR              1           0.01            100          grhk0              1              0                   1
hk0026012      log                     FACTOR              1           0.01            100          grhk0              1              0                   1
hk0026013      log                     FACTOR              1           0.01            100          grhk0              1              0                   1
hk0026014      log                     FACTOR              1           0.01            100          grhk0              1              0                   1
hk0026015      log                     FACTOR              1           0.01            100          grhk0              1              0                   1
hk0026016      log                     FACTOR              1           0.01            100          grhk0              1              0                   1
hk0026017      log                     FACTOR              1           0.01            100          grhk0              1              0                   1
[...]
   ucn_00_031_003_000          ucn            0.0494276            0.0494276          1.87000e-10             0.000000
   ucn_00_031_004_000          ucn            0.0468327            0.0468327          4.06000e-10             0.000000
   ucn_00_031_005_000          ucn            0.0474957            0.0474957         -3.20000e-11             0.000000
   ucn_00_031_006_000          ucn            0.0503479            0.0503479          2.32000e-10             0.000000
   ucn_00_031_007_000          ucn            0.0460786            0.0460786          9.68000e-10             0.000000
   ucn_00_031_008_000          ucn            0.0490671            0.0490671          9.80000e-11             0.000000
   ucn_00_031_009_000          ucn            0.0480412            0.0480412         -4.21000e-10             0.000000
   ucn_00_031_010_000          ucn            0.0454044            0.0454044         -7.10000e-11             0.000000
   ucn_00_031_011_000          ucn            0.0441578            0.0441578         -1.64500e-09             0.000000
   ucn_00_031_012_000          ucn            0.0462476            0.0462476          2.56000e-10             0.000000
   ucn_00_031_013_000          ucn            0.0459693            0.0459693         -1.59900e-09             0.000000
   ucn_00_031_014_000          ucn            0.0460027            0.0460027         -1.74000e-10             0.000000
   ucn_00_031_015_000          ucn            0.0497869            0.0497869         -5.63000e-10             0.000000
   ucn_00_031_016_000          ucn            0.0515854            0.0515854         -8.90000e-11             0.000000
   ucn_00_031_017_000          ucn            0.0503264            0.0503264          2.52000e-10             0.000000
   ucn_00_031_018_000          ucn            0.0514643            0.0514643          8.00000e-10             0.000000
   ucn_00_031_019_000          ucn            0.0526641            0.0526641         -5.20000e-11             0.000000
   ucn_00_032_001_000          ucn            0.0507430            0.0507430         -1.82000e-10             0.000000
   ucn_00_032_002_000          ucn            0.0596758            0.0596758          3.70000e-10             0.000000
   ucn_00_032_003_000          ucn            0.0496332            0.0496332         -2.61000e-10             0.000000
   ucn_00_032_004_000          ucn            0.0492150            0.0492150         -3.50000e-10             0.000000
   ucn_00_032_005_000          ucn            0.0483169            0.0483169          2.36000e-10             0.000000
   ucn_00_032_006_000          ucn            0.0505641            0.0505641         -3.69000e-10             0.000000
   ucn_00_032_007_000          ucn            0.0479368            0.0479369         -7.04000e-10             0.000000
   ucn_00_032_008_000          ucn            0.0463258            0.0463258          1.62700e-09             0.000000
   ucn_00_032_009_000          ucn            0.0493033            0.0493033          6.79000e-10             0.000000
   ucn_00_032_010_000          ucn            0.0472642            0.0472642          2.32000e-10             0.000000
   ucn_00_032_011_000          ucn            0.0434837            0.0434837          3.50000e-10             0.000000
   ucn_00_032_012_000          ucn            0.0458552            0.0458552          7.70000e-11             0.000000
   ucn_00_032_013_000          ucn            0.0465015            0.0465015          2.96000e-10             0.000000
   ucn_00_032_014_000          ucn            0.0474078            0.0474078          4.91000e-10             0.000000
   ucn_00_032_015_000          ucn            0.0497336            0.0497336         -4.12000e-10             0.000000
   ucn_00_032_016_000          ucn            0.0517396            0.0517396         -1.81800e-09             0.000000
   ucn_00_032_017_000          ucn            0.0504380            0.0504380          4.99000e-10             0.000000
   ucn_00_032_018_000          ucn            0.0518963            0.0518963         -3.10000e-11             0.000000
   ucn_00_032_019_000          ucn            0.0532391            0.0532391          6.60000e-10             0.000000
   ucn_00_033_002_000          ucn            0.0688985            0.0688985          1.11000e-10             0.000000
   ucn_00_033_003_000          ucn            0.0530367            0.0530367          4.07000e-10             0.000000
   ucn_00_033_004_000          ucn            0.0500014            0.0500014         -1.09500e-09             0.000000
   ucn_00_033_005_000          ucn            0.0539034            0.0539034          8.98000e-10             0.000000
   ucn_00_033_006_000          ucn            0.0470428            0.0470428         -3.20000e-10             0.000000
   ucn_00_033_007_000          ucn            0.0445547            0.0445547         -3.59000e-10             0.000000
   ucn_00_033_008_000          ucn            0.0473848            0.0473848          8.79000e-10             0.000000
   ucn_00_033_009_000          ucn            0.0468358            0.0468358         -1.31000e-10             0.000000
   ucn_00_033_010_000          ucn            0.0429745            0.0429745         -2.29000e-10             0.000000
   ucn_00_033_011_000  less_wlconc            0.0579484            0.0482903           0.00965806              1.00000
   ucn_00_033_012_000          ucn            0.0515954            0.0515954         -8.00000e-11             0.000000
   ucn_00_033_013_000          ucn            0.0479124            0.0479124         -3.70000e-11             0.000000
   ucn_00_033_014_000          ucn            0.0487028            0.0487028         -1.41400e-09             0.000000
   ucn_00_033_015_000          ucn            0.0506072            0.0506072          8.00000e-12             0.000000
   ucn_00_033_016_000          ucn            0.0518882            0.0518882          8.90000e-11             0.000000
   ucn_00_033_017_000          ucn            0.0509776            0.0509776          3.05000e-10             0.000000
   ucn_00_033_018_000          ucn            0.0520852            0.0520852         -1.00000e-11             0.000000
   ucn_00_033_019_000          ucn            0.0517004            0.0517004         -4.80000e-11             0.000000
   ucn_00_034_003_000          ucn            0.0590667            0.0590667          2.30000e-10             0.000000
   ucn_00_034_004_000          ucn            0.0525333            0.0525333          2.03000e-10             0.000000
   ucn_00_034_005_000          ucn            0.0517139            0.0517139         -1.23000e-10             0.000000
   ucn_00_034_006_000          ucn            0.0496236            0.0496236         -1.41100e-09             0.000000
   ucn_00_034_007_000          ucn            0.0525724            0.0525724         -3.47000e-10             0.000000
   ucn_00_034_008_000          ucn            0.0491214            0.0491214          1.82000e-10             0.000000
   ucn_00_034_009_000          ucn            0.0464391            0.0464391          1.23300e-09             0.000000
   ucn_00_034_010_000          ucn            0.0464807            0.0464807          2.97000e-10             0.000000
   ucn_00_034_011_000          ucn            0.0523221            0.0523221         -5.26000e-10             0.000000
   ucn_00_034_012_000          ucn            0.0521567            0.0521567          1.48600e-09             0.000000
   ucn_00_034_013_000          ucn            0.0488505            0.0488505          1.84100e-09             0.000000
   ucn_00_034_014_000          ucn            0.0495399            0.0495399          4.15000e-10             0.000000
   ucn_00_034_015_000          ucn            0.0523481            0.0523481         -4.28000e-10             0.000000
   ucn_00_034_016_000          ucn            0.0536442            0.0536442          1.00000e-10             0.000000
   ucn_00_034_017_000          ucn            0.0526612            0.0526612          3.76000e-10             0.000000
   ucn_00_034_018_000          ucn            0.0530535            0.0530535          1.01500e-09             0.000000
   ucn_00_034_019_000          ucn            0.0530698            0.0530698          4.00000e-11             0.000000
   ucn_00_035_004_000          ucn            0.0499301            0.0499301          4.60000e-11             0.000000
   ucn_00_035_005_000          ucn            0.0489221            0.0489221          3.49000e-10             0.000000
   ucn_00_035_006_000          ucn            0.0485988            0.0485988          1.42600e-09             0.000000
   ucn_00_035_007_000          ucn            0.0528037            0.0528037         -9.50000e-11             0.000000
   ucn_00_035_008_000          ucn            0.0517303            0.0517304         -3.40000e-10             0.000000
   ucn_00_035_009_000          ucn            0.0485889            0.0485889         -3.41000e-10             0.000000
   ucn_00_035_010_000          ucn            0.0482373            0.0482373          3.32000e-10             0.000000
   ucn_00_035_011_000          ucn            0.0495021            0.0495021          3.45000e-10             0.000000
   ucn_00_035_012_000          ucn            0.0514651            0.0514651         -8.60000e-11             0.000000
   ucn_00_035_013_000          ucn            0.0504453            0.0504453          2.99000e-10             0.000000
   ucn_00_035_014_000          ucn            0.0499421            0.0499421         -4.64000e-10             0.000000
   ucn_00_035_015_000          ucn            0.0524975            0.0524975          2.62000e-10             0.000000
   ucn_00_035_016_000          ucn            0.0536433            0.0536433         -1.67000e-10             0.000000
   ucn_00_035_017_000          ucn            0.0523899            0.0523899          1.32900e-09             0.000000
   ucn_00_035_018_000          ucn            0.0533160            0.0533160          3.77000e-10             0.000000
   ucn_00_036_004_000          ucn            0.0515177            0.0515177          1.46300e-09             0.000000
   ucn_00_036_005_000          ucn            0.0495162            0.0495162          2.94000e-10             0.000000
   ucn_00_036_006_000          ucn            0.0562641            0.0562641          4.37000e-10             0.000000
   ucn_00_036_007_000          ucn            0.0520110            0.0520110          6.79000e-10             0.000000
   ucn_00_036_008_000          ucn            0.0495614            0.0495614          2.19000e-10             0.000000
   ucn_00_036_009_000          ucn            0.0497824            0.0497824         -8.80000e-11             0.000000
   ucn_00_036_010_000          ucn            0.0482751            0.0482751         -1.59800e-09             0.000000
   ucn_00_036_011_000          ucn            0.0471368            0.0471368         -4.77000e-10             0.000000
   ucn_00_036_012_000          ucn            0.0494152            0.0494152          4.98000e-10             0.000000
   ucn_00_036_013_000          ucn            0.0534004            0.0534004          8.28000e-10             0.000000
   ucn_00_036_014_000          ucn            0.0505043            0.0505043          2.71000e-10             0.000000
   ucn_00_036_015_000          ucn            0.0527322            0.0527322         -3.17000e-10             0.000000
   ucn_00_036_016_000          ucn            0.0541622            0.0541622         -3.61000e-10             0.000000
   ucn_00_036_017_000          ucn            0.0527651            0.0527651          9.97000e-10             0.000000
   ucn_00_036_018_000          ucn            0.0545293            0.0545293         -7.27000e-10             0.000000
   ucn_00_037_005_000          ucn            0.0546945            0.0546946         -1.75100e-09             0.000000
   ucn_00_037_006_000          ucn            0.0513372            0.0513372         -2.80000e-11             0.000000
   ucn_00_037_007_000          ucn            0.0475727            0.0475727          3.67000e-10             0.000000
   ucn_00_037_008_000          ucn            0.0507901            0.0507901          3.89000e-10             0.000000
   ucn_00_037_009_000          ucn            0.0502758            0.0502758          1.62000e-10             0.000000
   ucn_00_037_010_000          ucn            0.0502234            0.0502234          2.28000e-10             0.000000
   ucn_00_037_011_000          ucn            0.0487133            0.0487133         -5.20000e-11             0.000000
   ucn_00_037_012_000          ucn            0.0498634            0.0498634         -2.00000e-12             0.000000
   ucn_00_037_013_000          ucn            0.0529519            0.0529519         -2.99000e-10             0.000000
   ucn_00_037_014_000          ucn            0.0504798            0.0504798          2.56000e-10             0.000000
   ucn_00_037_015_000          ucn            0.0532380            0.0532380          1.69900e-09             0.000000
   ucn_00_037_016_000          ucn            0.0544371            0.0544371         -3.60000e-11             0.000000
   ucn_00_037_017_000          ucn            0.0529399            0.0529399         -4.60000e-10             0.000000
   ucn_00_038_005_000          ucn            0.0494476            0.0494476          1.17200e-09             0.000000
   ucn_00_038_006_000          ucn            0.0553354            0.0553354         -4.12000e-10             0.000000
   ucn_00_038_007_000          ucn            0.0476322            0.0476322          3.40000e-11             0.000000
   ucn_00_038_008_000          ucn            0.0505005            0.0505005         -1.52000e-10             0.000000
   ucn_00_038_009_000          ucn            0.0502905            0.0502905          1.79000e-10             0.000000
   ucn_00_038_010_000          ucn            0.0483548            0.0483548          2.63000e-10             0.000000
   ucn_00_038_011_000          ucn            0.0487227            0.0487227         -7.15000e-10             0.000000
   ucn_00_038_012_000          ucn            0.0490815            0.0490815          4.22000e-10             0.000000
   ucn_00_038_013_000          ucn            0.0496555            0.0496555          3.27000e-10             0.000000
   ucn_00_038_014_000          ucn            0.0490351            0.0490351         -1.24000e-10             0.000000
   ucn_00_038_015_000          ucn            0.0564416            0.0564416          1.13000e-10             0.000000
   ucn_00_038_016_000          ucn            0.0559556            0.0559556         -2.04000e-10             0.000000
   ucn_00_039_005_000          ucn            0.0624362            0.0624362         -2.45000e-10             0.000000
   ucn_00_039_006_000          ucn            0.0624091            0.0624091         -1.00600e-09             0.000000
   ucn_00_039_007_000          ucn            0.0553801            0.0553801          1.70000e-10             0.000000
   ucn_00_039_008_000          ucn            0.0592131            0.0592131          6.88000e-10             0.000000
   ucn_00_039_009_000          ucn            0.0614588            0.0614588          4.39000e-10             0.000000
   ucn_00_039_010_000          ucn            0.0603862            0.0603862          2.51000e-10             0.000000
   ucn_00_039_011_000          ucn            0.0609894            0.0609894          1.58000e-10             0.000000
   ucn_00_039_012_000          ucn            0.0621661            0.0621661          3.30000e-11             0.000000
   ucn_00_039_013_000          ucn            0.0653420            0.0653420         -3.10000e-11             0.000000
   ucn_00_039_014_000          ucn            0.0597714            0.0597714          1.31900e-09             0.000000

Final composite objective function 
  Final phi                                           Total : 32.8006
  Contribution to phi from observation group  "flx_constan" : 0.000000
  Contribution to phi from observation group   "flx_in-out" : 0.000000
  Contribution to phi from observation group  "flx_percent" : 0.000000
  Contribution to phi from observation group  "flx_recharg" : 0.000000
  Contribution to phi from observation group  "flx_storage" : 0.000000
  Contribution to phi from observation group  "flx_stream_" : 0.000000
  Contribution to phi from observation group    "flx_total" : 0.000000
  Contribution to phi from observation group    "flx_wells" : 0.000000
  Contribution to phi from observation group  "gw_1sorre1c" : 0.000000
  Contribution to phi from observation group    "gw_coco1c" : 0.000000
  Contribution to phi from observation group    "gw_cohe1c" : 0.000000
  Contribution to phi from observation group    "gw_malo1c" : 0.000000
  Contribution to phi from observation group  "gw_mastfl1c" : 0.000000
  Contribution to phi from observation group  "gw_mastso1c" : 0.000000
  Contribution to phi from observation group      "gw_re1c" : 0.000000
  Contribution to phi from observation group      "gw_st1c" : 0.000000
  Contribution to phi from observation group      "gw_we1c" : 0.000000
  Contribution to phi from observation group         "gwcn" : 0.000000
  Contribution to phi from observation group          "hds" : 0.000000
  Contribution to phi from observation group  "less_swconc" : 9.10099e-05
  Contribution to phi from observation group  "less_wlconc" : 0.000551032
  Contribution to phi from observation group    "sw_coco1c" : 0.000000
  Contribution to phi from observation group    "sw_coco1f" : 0.000000
  Contribution to phi from observation group  "sw_gwtost1c" : 0.000000
  Contribution to phi from observation group  "sw_gwtost1f" : 0.000000
  Contribution to phi from observation group  "sw_intost1c" : 0.000000
  Contribution to phi from observation group  "sw_intost1f" : 0.000000
  Contribution to phi from observation group      "sw_pr1c" : 0.000000
  Contribution to phi from observation group      "sw_pr1f" : 0.000000
  Contribution to phi from observation group      "sw_ru1c" : 0.000000
  Contribution to phi from observation group      "sw_ru1f" : 0.000000
  Contribution to phi from observation group      "sw_st1c" : 0.000000
  Contribution to phi from observation group      "sw_st1f" : 0.000000
  Contribution to phi from observation group    "sw_stac1c" : 0.000000
  Contribution to phi from observation group    "sw_stac1f" : 0.000000
  Contribution to phi from observation group    "sw_stde1c" : 0.000000
  Contribution to phi from observation group    "sw_stde1f" : 0.000000
  Contribution to phi from observation group  "sw_sttogw1c" : 0.000000
  Contribution to phi from observation group  "sw_sttogw1f" : 0.000000
  Contribution to phi from observation group         "swgw" : 0.000000
  Contribution to phi from observation group          "ucn" : 0.000000
  Contribution to phi from observation group  "vol_constan" : 0.000000
  Contribution to phi from observation group   "vol_in-out" : 0.000000
  Contribution to phi from observation group  "vol_percent" : 0.000000
  Contribution to phi from observation group  "vol_recharg" : 0.000000
  Contribution to phi from observation group  "vol_storage" : 0.000000
  Contribution to phi from observation group  "vol_stream_" : 0.000000
  Contribution to phi from observation group    "vol_total" : 0.000000
  Contribution to phi from observation group    "vol_wells" : 0.000000
  Contribution to phi from observation group  "greater_bnd" : 0.400000
  Contribution to phi from observation group     "less_bnd" : 32.4000


Number of forward model runs performed during optimiztion: 1
